@<TRIPOS>MOLECULE
tmp/1qgiA00.pdb
 135 127 0 0 0
SMALL
GASTEIGER

@<TRIPOS>ATOM
      1  N          9.5170   44.2670   46.9900 N.3    37  GLU37      -0.1245
      2  CA        10.4280   44.9800   46.0980 C.3    37  GLU37       0.1567
      3  C         10.1850   46.4760   46.0050 C.2    37  GLU37       0.2260
      4  O         11.1290   47.2560   45.9090 O.2    37  GLU37      -0.2867
      5  CB        10.3630   44.3980   44.6790 C.3    37  GLU37       0.0388
      6  CG        10.9490   43.0100   44.5430 C.3    37  GLU37       0.1160
      7  CD        12.4490   42.9720   44.7940 C.2    37  GLU37       0.3649
      8  OE1       13.1690   43.8400   44.2560 O.co2  37  GLU37      -0.2457
      9  OE2       12.9170   42.0740   45.5130 O.co2  37  GLU37      -0.2457
     10  N         19.8090   54.6160   41.2320 N.3    53  ILE53      -0.1245
     11  CA        19.8680   54.3470   42.6630 C.3    53  ILE53       0.1561
     12  C         21.2550   54.6130   43.2710 C.2    53  ILE53       0.2260
     13  O         21.5810   54.1260   44.3470 O.2    53  ILE53      -0.2867
     14  CB        19.3400   52.8970   42.8970 C.3    53  ILE53       0.0252
     15  CG1       17.8480   52.8640   42.5620 C.3    53  ILE53       0.0019
     16  CG2       19.5630   52.3960   44.3230 C.3    53  ILE53       0.0019
     17  CD1       17.2850   51.4770   42.4450 C.3    53  ILE53       0.0001
     18  N         24.0370   53.4450   42.8850 N.3    55  ASP55      -0.1239
     19  CA        24.7530   52.2310   43.2510 C.3    55  ASP55       0.1674
     20  C         25.8190   51.8080   42.2430 C.2    55  ASP55       0.2266
     21  O         26.2860   50.6670   42.2690 O.2    55  ASP55      -0.2867
     22  CB        23.7630   51.0850   43.4890 C.3    55  ASP55       0.1410
     23  CG        22.8240   50.8530   42.3130 C.2    55  ASP55       0.3668
     24  OD1       22.8470   51.6410   41.3390 O.co2  55  ASP55      -0.2456
     25  OD2       22.0520   49.8700   42.3760 O.co2  55  ASP55      -0.2456
     26  N         25.5240   51.1600   39.0960 N.3    57  ARG57      -0.1245
     27  CA        25.0340   50.1620   38.1480 C.3    57  ARG57       0.1563
     28  C         24.2860   50.7980   36.9770 C.2    57  ARG57       0.2260
     29  O         23.6950   50.0990   36.1520 O.2    57  ARG57      -0.2867
     30  CB        24.1020   49.1810   38.8650 C.3    57  ARG57       0.0307
     31  CG        24.7750   48.3610   39.9390 C.3    57  ARG57       0.0489
     32  CD        23.8960   47.2130   40.3970 C.3    57  ARG57       0.2205
     33  NE        24.7220   46.0690   40.7670 N.pl3  57  ARG57      -0.0865
     34  CZ        24.8060   45.5480   41.9900 C.cat  57  ARG57       0.5346
     35  NH1       24.0970   46.0570   42.9930 N.pl3  57  ARG57       0.1354
     36  NH2       25.6450   44.5420   42.2200 N.pl3  57  ARG57       0.1354
     37  N         18.3290   51.6150   36.9650 N.3    60  THR60      -0.1218
     38  CA        17.5700   50.4070   37.2650 C.3    60  THR60       0.1862
     39  C         16.2400   50.6110   36.5400 C.2    60  THR60       0.2287
     40  O         15.6090   51.6680   36.6770 O.2    60  THR60      -0.2866
     41  CB        17.3350   50.2450   38.7620 C.3    60  THR60       0.1770
     42  OG1       18.6050   50.1640   39.4200 O.3    60  THR60      -0.2211
     43  CG2       16.5450   48.9650   39.0340 C.3    60  THR60       0.0375
     44  N         12.0170   43.7320   37.2040 N.3    64  PHE64      -0.1227
     45  CA        12.9140   42.7950   37.8600 C.3    64  PHE64       0.1736
     46  C         14.3320   43.2450   38.1670 C.2    64  PHE64       0.2596
     47  O         15.2350   42.4110   38.2410 O.2    64  PHE64      -0.2718
     48  CB        12.9390   41.4770   37.0760 C.3    64  PHE64       0.0547
     49  CG        13.3850   41.6290   35.6460 C.ar   64  PHE64      -0.0202
     50  CD1       12.4720   41.9410   34.6460 C.ar   64  PHE64      -0.0042
     51  CD2       14.7220   41.4860   35.3020 C.ar   64  PHE64      -0.0042
     52  CE1       12.8780   42.1160   33.3150 C.ar   64  PHE64      -0.0003
     53  CE2       15.1370   41.6590   33.9680 C.ar   64  PHE64      -0.0003
     54  CZ        14.2040   41.9760   32.9780 C.ar   64  PHE64      -0.0000
     55  N         14.5300   44.5530   38.2900 N.am   65  GLY65      -0.1942
     56  CA        15.8410   45.0810   38.6360 C.3    65  GLY65       0.2014
     57  C         16.9230   45.1070   37.5770 C.2    65  GLY65       0.2639
     58  O         18.1050   45.1330   37.9200 O.2    65  GLY65      -0.2714
     59  N         16.5460   45.0920   36.3020 N.am   66  ALA66      -0.1963
     60  CA        17.5400   45.1560   35.2350 C.3    66  ALA66       0.1728
     61  C         18.2300   46.5160   35.3240 C.2    66  ALA66       0.2616
     62  O         17.5970   47.5140   35.6760 O.2    66  ALA66      -0.2715
     63  CB        16.8810   44.9990   33.8720 C.3    66  ALA66       0.0334
     64  N         19.5240   46.5580   35.0240 N.am   67  THR67      -0.1951
     65  CA        20.2690   47.8110   35.0660 C.3    67  THR67       0.1897
     66  C         20.9120   48.0540   33.7070 C.2    67  THR67       0.2313
     67  O         21.0770   47.1060   32.9280 O.2    67  THR67      -0.2863
     68  CB        21.3840   47.7670   36.1360 C.3    67  THR67       0.1794
     69  OG1       22.3260   46.7350   35.7980 O.3    67  THR67      -0.2208
     70  CG2       20.7920   47.4970   37.5290 C.3    67  THR67       0.0378
     71  N         28.5270   47.0300   37.6920 N.3    73  ASP73      -0.1239
     72  CA        27.6400   46.1040   36.9920 C.3    73  ASP73       0.1674
     73  C         28.0220   46.1340   35.5220 C.2    73  ASP73       0.2266
     74  O         27.4880   46.9170   34.7340 O.2    73  ASP73      -0.2867
     75  CB        26.1650   46.4650   37.1750 C.3    73  ASP73       0.1410
     76  CG        25.2360   45.3100   36.8280 C.2    73  ASP73       0.3668
     77  OD1       25.6440   44.4110   36.0580 O.co2  73  ASP73      -0.2456
     78  OD2       24.0940   45.2830   37.3380 O.co2  73  ASP73      -0.2456
     79  N         21.5920   43.3610   32.5780 N.3    77  ASP77      -0.1239
     80  CA        20.5720   42.7350   31.7420 C.3    77  ASP77       0.1674
     81  C         19.7890   43.7750   30.9400 C.2    77  ASP77       0.2266
     82  O         19.0180   43.4230   30.0440 O.2    77  ASP77      -0.2867
     83  CB        19.6230   41.8920   32.5870 C.3    77  ASP77       0.1410
     84  CG        20.3200   40.7230   33.2310 C.2    77  ASP77       0.3668
     85  OD1       21.1230   40.0590   32.5360 O.co2  77  ASP77      -0.2456
     86  OD2       20.0920   40.4790   34.4360 O.co2  77  ASP77      -0.2456
     87  N         15.3400   35.0000   34.8860 N.3   148  TYR148     -0.1241
     88  CA        14.9470   34.2850   36.1040 C.3   148  TYR148      0.1605
     89  C         13.8730   33.2180   36.0070 C.2   148  TYR148      0.2264
     90  O         13.9620   32.1920   36.6850 O.2   148  TYR148     -0.2867
     91  CB        14.4580   35.2780   37.1800 C.3   148  TYR148      0.0534
     92  CG        15.4720   36.3160   37.6090 C.ar  148  TYR148     -0.0201
     93  CD1       16.7180   35.9300   38.1260 C.ar  148  TYR148     -0.0009
     94  CD2       15.1910   37.6730   37.5020 C.ar  148  TYR148     -0.0009
     95  CE1       17.6540   36.8720   38.5180 C.ar  148  TYR148      0.0417
     96  CE2       16.1250   38.6370   37.8960 C.ar  148  TYR148      0.0417
     97  CZ        17.3530   38.2220   38.4020 C.ar  148  TYR148      0.1957
     98  OH        18.2760   39.1610   38.7990 O.3   148  TYR148     -0.2866
     99  N         15.1300   36.1470   41.7970 N.3   175  LEU175     -0.1231
    100  CA        15.1580   37.5900   41.6190 C.3   175  LEU175      0.1693
    101  C         15.8890   38.2910   42.7850 C.2   175  LEU175      0.2592
    102  O         16.7610   39.1480   42.5810 O.2   175  LEU175     -0.2718
    103  CB        13.7060   38.1150   41.5000 C.3   175  LEU175      0.0284
    104  CG        13.4040   39.6230   41.3560 C.3   175  LEU175      0.0019
    105  CD1       12.0300   39.8440   40.7210 C.3   175  LEU175      0.0001
    106  CD2       13.4500   40.3210   42.6950 C.3   175  LEU175      0.0001
    107  N         15.5680   37.8780   44.0030 N.am  176  ASN176     -0.1974
    108  CA        16.1290   38.4980   45.1940 C.3   176  ASN176      0.1688
    109  C         17.5560   38.0880   45.5730 C.2   176  ASN176      0.2292
    110  O         18.3550   38.9240   45.9740 O.2   176  ASN176     -0.2864
    111  CB        15.1710   38.2290   46.3620 C.3   176  ASN176      0.1181
    112  CG        15.5510   38.9810   47.6350 C.2   176  ASN176      0.2629
    113  OD1       15.9370   40.1630   47.6030 O.2   176  ASN176     -0.2716
    114  ND2       15.4130   38.3070   48.7630 N.am  176  ASN176     -0.0877
    115  N         22.3380   42.3080   52.5310 N.3   218  LYS218     -0.1231
    116  CA        22.5140   42.4600   51.0920 C.3   218  LYS218      0.1693
    117  C         21.2870   42.0810   50.2620 C.2   218  LYS218      0.2592
    118  O         21.1440   42.5280   49.1330 O.2   218  LYS218     -0.2718
    119  CB        23.7580   41.7160   50.5980 C.3   218  LYS218      0.0285
    120  CG        23.8220   40.2190   50.8600 C.3   218  LYS218      0.0035
    121  CD        25.2920   39.7680   50.8690 C.3   218  LYS218      0.0206
    122  CE        25.5150   38.3230   50.4170 C.3   218  LYS218      0.1093
    123  NZ        25.4280   38.1270   48.9250 N.3   218  LYS218     -0.1314
    124  N         20.3910   41.2800   50.8230 N.am  219  TYR219     -0.1976
    125  CA        19.1970   40.8640   50.0920 C.3   219  TYR219      0.1639
    126  C         17.9780   41.6610   50.5270 C.2   219  TYR219      0.2290
    127  O         17.1590   42.0640   49.6970 O.2   219  TYR219     -0.2864
    128  CB        18.9350   39.3630   50.2960 C.3   219  TYR219      0.0560
    129  CG        20.0980   38.4690   49.9180 C.ar  219  TYR219     -0.0198
    130  CD1       20.7700   38.6320   48.7010 C.ar  219  TYR219     -0.0009
    131  CD2       20.5450   37.4780   50.7910 C.ar  219  TYR219     -0.0009
    132  CE1       21.8700   37.8290   48.3660 C.ar  219  TYR219      0.0417
    133  CE2       21.6380   36.6660   50.4680 C.ar  219  TYR219      0.0417
    134  CZ        22.2980   36.8480   49.2580 C.ar  219  TYR219      0.1957
    135  OH        23.3930   36.0600   48.9640 O.3   219  TYR219     -0.2866
@<TRIPOS>BOND
     1    82    81    2
     2    81    80    1
     3    80    79    1
     4    80    83    1
     5    85    84   ar
     6    83    84    1
     7    67    66    2
     8    54    52   ar
     9    54    53   ar
    10    84    86   ar
    11    52    50   ar
    12    66    65    1
    13    63    60    1
    14    53    51   ar
    15    50    49   ar
    16    74    73    2
    17    87    88    1
    18    64    65    1
    19    64    61   am
    20    65    68    1
    21    60    61    1
    22    60    59    1
    23    51    49   ar
    24    61    62    2
    25    73    72    1
    26    49    48    1
    27    69    68    1
    28    89    88    1
    29    89    90    2
    30    77    76   ar
    31    88    91    1
    32    68    70    1
    33    29    28    2
    34    59    57   am
    35    39    40    2
    36    39    38    1
    37    76    75    1
    38    76    78   ar
    39    37    38    1
    40    28    27    1
    41    72    75    1
    42    72    71    1
    43    48    45    1
    44    91    92    1
    45    44    45    1
    46    38    41    1
    47    94    92   ar
    48    94    96   ar
    49    57    58    2
    50    57    56    1
    51    92    93   ar
    52    45    46    1
    53    96    97   ar
    54    93    95   ar
    55    27    30    1
    56    27    26    1
    57    46    47    2
    58    46    55   am
    59    55    56    1
    60    97    95   ar
    61    97    98    1
    62    41    43    1
    63    41    42    1
    64    30    31    1
    65    31    32    1
    66    32    33    1
    67   105   104    1
    68    33    34    2
    69    10    11    1
    70    24    23   ar
    71   104   103    1
    72   104   106    1
    73   103   100    1
    74   100    99    1
    75   100   101    1
    76    34    36    1
    77    34    35    1
    78    20    21    2
    79    20    19    1
    80    23    25   ar
    81    23    22    1
    82    17    15    1
    83    15    14    1
    84   102   101    2
    85    11    14    1
    86    11    12    1
    87   101   107   am
    88    18    19    1
    89    14    16    1
    90    19    22    1
    91    12    13    2
    92   107   108    1
    93     8     7   ar
    94     6     5    1
    95     6     7    1
    96     5     2    1
    97     7     9   ar
    98   108   109    1
    99   108   111    1
   100   109   110    2
   101     4     3    2
   102     3     2    1
   103     2     1    1
   104   111   112    1
   105   113   112    2
   106   112   114   am
   107   132   130   ar
   108   132   134   ar
   109   130   129   ar
   110   123   122    1
   111   135   134    1
   112   118   117    2
   113   134   133   ar
   114   127   126    2
   115   129   128    1
   116   129   131   ar
   117   125   128    1
   118   125   126    1
   119   125   124    1
   120   117   124   am
   121   117   116    1
   122   122   121    1
   123   133   131   ar
   124   119   120    1
   125   119   116    1
   126   120   121    1
   127   116   115    1
