@<TRIPOS>MOLECULE
tmp/1qglA01.pdb
 79 76 0 0 0
SMALL
GASTEIGER

@<TRIPOS>ATOM
      1  N          5.3720   54.5150   57.0670 N.3    12  TYR12      -0.1241
      2  CA         5.7460   55.5060   58.0620 C.3    12  TYR12       0.1605
      3  C          6.2690   56.7960   57.4470 C.2    12  TYR12       0.2264
      4  O          7.2800   56.8040   56.7570 O.2    12  TYR12      -0.2867
      5  CB         6.7790   54.8950   58.9970 C.3    12  TYR12       0.0534
      6  CG         7.2500   55.8120   60.0930 C.ar   12  TYR12      -0.0201
      7  CD1        8.2740   56.7370   59.8720 C.ar   12  TYR12      -0.0009
      8  CD2        6.6480   55.7770   61.3490 C.ar   12  TYR12      -0.0009
      9  CE1        8.6810   57.6000   60.8790 C.ar   12  TYR12       0.0417
     10  CE2        7.0460   56.6360   62.3600 C.ar   12  TYR12       0.0417
     11  CZ         8.0570   57.5400   62.1220 C.ar   12  TYR12       0.1957
     12  OH         8.4370   58.3850   63.1350 O.3    12  TYR12      -0.2866
     13  N          8.2890   59.8490   56.8860 N.3    14  ASN14      -0.1240
     14  CA         9.5450   60.4340   57.3090 C.3    14  ASN14       0.1653
     15  C          9.5440   61.7960   56.6400 C.2    14  ASN14       0.2266
     16  O         10.1000   61.9600   55.5550 O.2    14  ASN14      -0.2867
     17  CB        10.7340   59.6110   56.8240 C.3    14  ASN14       0.1155
     18  CG        10.7540   58.2140   57.4010 C.2    14  ASN14       0.2627
     19  OD1       10.1950   57.2790   56.8280 O.2    14  ASN14      -0.2716
     20  ND2       11.3870   58.0670   58.5550 N.am   14  ASN14      -0.0877
     21  N         12.5160   50.1060   61.6140 N.3    98  GLY98      -0.1210
     22  CA        13.5000   50.9650   62.2510 C.3    98  GLY98       0.1956
     23  C         13.1930   50.9620   63.7310 C.2    98  GLY98       0.2612
     24  O         13.2580   49.9110   64.3740 O.2    98  GLY98      -0.2717
     25  N         12.8550   52.1270   64.2820 N.am   99  LEU99      -0.1965
     26  CA        12.5020   52.2100   65.6910 C.3    99  LEU99       0.1728
     27  C         11.1230   51.5700   65.7950 C.2    99  LEU99       0.2616
     28  O         10.8280   50.8360   66.7340 O.2    99  LEU99      -0.2715
     29  CB        12.4610   53.6690   66.1560 C.3    99  LEU99       0.0311
     30  CG        12.0710   53.9110   67.6260 C.3    99  LEU99       0.0022
     31  CD1       13.0170   53.1720   68.5760 C.3    99  LEU99       0.0001
     32  CD2       12.1070   55.4130   67.9020 C.3    99  LEU99       0.0001
     33  N         10.2810   51.8370   64.8070 N.am  100  TYR100     -0.1974
     34  CA         8.9410   51.2560   64.7750 C.3   100  TYR100      0.1639
     35  C          8.9410   50.0220   63.8690 C.2   100  TYR100      0.2290
     36  O          9.8180   49.8760   63.0140 O.2   100  TYR100     -0.2864
     37  CB         7.9300   52.3020   64.3190 C.3   100  TYR100      0.0560
     38  CG         7.8080   53.4090   65.3320 C.ar  100  TYR100     -0.0198
     39  CD1        7.2610   53.1610   66.5960 C.ar  100  TYR100     -0.0009
     40  CD2        8.3340   54.6750   65.0810 C.ar  100  TYR100     -0.0009
     41  CE1        7.2490   54.1430   67.5880 C.ar  100  TYR100      0.0417
     42  CE2        8.3280   55.6680   66.0720 C.ar  100  TYR100      0.0417
     43  CZ         7.7870   55.3890   67.3220 C.ar  100  TYR100      0.1957
     44  OH         7.8020   56.3500   68.3060 O.3   100  TYR100     -0.2866
     45  N          5.9510   50.7140   60.6900 N.3   207  ALA207     -0.1231
     46  CA         7.1120   51.1800   59.9270 C.3   207  ALA207      0.1694
     47  C          7.8570   49.9090   59.4870 C.2   207  ALA207      0.2592
     48  O          7.7500   48.8840   60.1550 O.2   207  ALA207     -0.2718
     49  CB         8.0160   52.0790   60.7840 C.3   207  ALA207      0.0304
     50  N          8.5840   49.9470   58.3690 N.am  208  ASP208     -0.1974
     51  CA         8.7280   51.1260   57.5170 C.3   208  ASP208      0.1709
     52  C          8.0820   50.9760   56.1430 C.2   208  ASP208      0.2293
     53  O          7.8020   51.9730   55.4780 O.2   208  ASP208     -0.2864
     54  CB        10.2130   51.4710   57.3660 C.3   208  ASP208      0.1436
     55  CG        10.6840   52.4780   58.4050 C.2   208  ASP208      0.3671
     56  OD1       10.5170   53.6900   58.1680 O.co2 208  ASP208     -0.2456
     57  OD2       11.1970   52.0710   59.4670 O.co2 208  ASP208     -0.2456
     58  N         18.3100   50.3920   56.9620 N.3   226  THR226     -0.1203
     59  CA        17.1440   49.9120   57.6780 C.3   226  THR226      0.1994
     60  C         16.2500   51.1330   57.8350 C.2   226  THR226      0.2618
     61  O         16.6430   52.2420   57.4660 O.2   226  THR226     -0.2717
     62  CB        17.5120   49.3990   59.0570 C.3   226  THR226      0.1784
     63  OG1       18.2120   50.4270   59.7590 O.3   226  THR226     -0.2211
     64  CG2       18.3940   48.1760   58.9480 C.3   226  THR226      0.0376
     65  N         15.0500   50.9370   58.3660 N.am  227  GLY227     -0.1942
     66  CA        14.1580   52.0670   58.5510 C.3   227  GLY227      0.2014
     67  C         13.7560   52.7820   57.2720 C.2   227  GLY227      0.2638
     68  O         13.4730   52.1410   56.2650 O.2   227  GLY227     -0.2714
     69  N         13.7340   54.1120   57.3230 N.am  228  ARG228     -0.1977
     70  CA        13.3360   54.9590   56.2000 C.3   228  ARG228      0.1597
     71  C         13.8870   54.6230   54.8130 C.2   228  ARG228      0.2287
     72  O         13.2410   54.9350   53.8160 O.2   228  ARG228     -0.2864
     73  CB        13.6670   56.4260   56.5150 C.3   228  ARG228      0.0334
     74  CG        15.0420   56.5500   57.0750 C.3   228  ARG228      0.0492
     75  CD        15.8070   57.7930   56.6690 C.3   228  ARG228      0.2205
     76  NE        15.4220   59.0140   57.3560 N.pl3 228  ARG228     -0.0865
     77  CZ        16.2530   60.0420   57.5170 C.cat 228  ARG228      0.5346
     78  NH1       17.4910   59.9720   57.0410 N.pl3 228  ARG228      0.1354
     79  NH2       15.8490   61.1430   58.1380 N.pl3 228  ARG228      0.1354
@<TRIPOS>BOND
     1    72    71    2
     2    71    70    1
     3    53    52    2
     4    16    15    2
     5    52    51    1
     6    70    73    1
     7    70    69    1
     8    68    67    2
     9    73    74    1
    10    15    14    1
    11    75    74    1
    12    75    76    1
    13     4     3    2
    14    17    14    1
    15    17    18    1
    16    19    18    2
    17    13    14    1
    18    58    59    1
    19    78    77    1
    20     1     2    1
    21    67    69   am
    22    67    66    1
    23    76    77    2
    24    54    51    1
    25    54    55    1
    26    18    20   am
    27     3     2    1
    28    61    60    2
    29    77    79    1
    30    51    50    1
    31    59    60    1
    32    59    62    1
    33    60    65   am
    34     2     5    1
    35    56    55   ar
    36    65    66    1
    37    50    47   am
    38    55    57   ar
    39    64    62    1
    40     5     6    1
    41    62    63    1
    42    47    46    1
    43    47    48    2
    44     7     6   ar
    45     7     9   ar
    46    46    45    1
    47    46    49    1
    48     6     8   ar
    49     9    11   ar
    50     8    10   ar
    51    21    22    1
    52    11    10   ar
    53    11    12    1
    54    22    23    1
    55    36    35    2
    56    23    25   am
    57    23    24    2
    58    35    34    1
    59    25    26    1
    60    37    34    1
    61    37    38    1
    62    34    33    1
    63    33    27   am
    64    40    38   ar
    65    40    42   ar
    66    38    39   ar
    67    26    27    1
    68    26    29    1
    69    27    28    2
    70    42    43   ar
    71    29    30    1
    72    39    41   ar
    73    43    41   ar
    74    43    44    1
    75    30    32    1
    76    30    31    1
