@<TRIPOS>MOLECULE
tmp/1qgnA00.pdb
 135 125 0 0 0
SMALL
GASTEIGER

@<TRIPOS>ATOM
      1  N         45.5340   23.9290   32.4690 N.3    90  SER90      -0.1202
      2  CA        46.5160   23.5420   33.4770 C.3    90  SER90       0.2020
      3  C         46.7110   24.5920   34.5770 C.2    90  SER90       0.2619
      4  O         46.1670   25.6990   34.5070 O.2    90  SER90      -0.2717
      5  CB        47.8530   23.2890   32.7990 C.3    90  SER90       0.2103
      6  OG        48.4980   24.5290   32.5580 O.3    90  SER90      -0.2182
      7  N         47.4990   24.2330   35.5890 N.am   91  GLY91      -0.1942
      8  CA        47.7700   25.1500   36.6780 C.3    91  GLY91       0.2014
      9  C         48.4740   26.3950   36.1760 C.2    91  GLY91       0.2638
     10  O         48.0750   27.5170   36.4860 O.2    91  GLY91      -0.2714
     11  N         49.5230   26.1860   35.3830 N.am   92  MET92      -0.1976
     12  CA        50.3070   27.2720   34.8060 C.3    92  MET92       0.1605
     13  C         49.4380   28.1330   33.9010 C.2    92  MET92       0.2287
     14  O         49.6900   29.3220   33.7290 O.2    92  MET92      -0.2864
     15  CB        51.4740   26.7060   34.0000 C.3    92  MET92       0.0413
     16  CG        52.6390   26.2100   34.8480 C.3    92  MET92       0.0598
     17  SD        53.3310   27.4880   35.9560 S.3    92  MET92      -0.1393
     18  CE        53.0790   28.9940   35.0030 C.3    92  MET92       0.0692
     19  N         47.4040   30.4380   36.4260 N.3    95  SER95      -0.1217
     20  CA        48.2090   31.5000   37.0270 C.3    95  SER95       0.1889
     21  C         48.4950   32.5780   36.0080 C.2    95  SER95       0.2288
     22  O         48.2830   33.7610   36.2560 O.2    95  SER95      -0.2866
     23  CB        49.5440   30.9520   37.5460 C.3    95  SER95       0.2089
     24  OG        49.3780   29.7330   38.2510 O.3    95  SER95      -0.2183
     25  N         56.6260   29.4180   42.8050 N.3   116  TYR116     -0.1241
     26  CA        56.8320   28.3000   41.8910 C.3   116  TYR116      0.1605
     27  C         57.7720   28.7650   40.7780 C.2   116  TYR116      0.2264
     28  O         57.4970   29.7590   40.1030 O.2   116  TYR116     -0.2867
     29  CB        55.4830   27.8690   41.3050 C.3   116  TYR116      0.0534
     30  CG        55.4770   26.5120   40.6460 C.ar  116  TYR116     -0.0201
     31  CD1       55.7230   25.3570   41.3800 C.ar  116  TYR116     -0.0009
     32  CD2       55.1900   26.3800   39.2890 C.ar  116  TYR116     -0.0009
     33  CE1       55.6790   24.0960   40.7780 C.ar  116  TYR116      0.0417
     34  CE2       55.1440   25.1270   38.6750 C.ar  116  TYR116      0.0417
     35  CZ        55.3870   23.9890   39.4260 C.ar  116  TYR116      0.1957
     36  OH        55.3130   22.7440   38.8390 O.3   116  TYR116     -0.2866
     37  N         56.5410   29.8900   37.3660 N.3   119  THR119     -0.1218
     38  CA        55.8160   31.1480   37.5340 C.3   119  THR119      0.1862
     39  C         56.7620   32.3140   37.7950 C.2   119  THR119      0.2287
     40  O         56.5000   33.4440   37.3840 O.2   119  THR119     -0.2866
     41  CB        54.8000   31.0780   38.6900 C.3   119  THR119      0.1770
     42  OG1       53.8750   30.0100   38.4560 O.3   119  THR119     -0.2211
     43  CG2       54.0250   32.3810   38.7900 C.3   119  THR119      0.0375
     44  N         51.6590   31.3130   47.2000 N.3   160  GLU160     -0.1245
     45  CA        51.1040   29.9960   47.4390 C.3   160  GLU160      0.1567
     46  C         51.2450   29.7810   48.9360 C.2   160  GLU160      0.2260
     47  O         52.0730   30.4320   49.5760 O.2   160  GLU160     -0.2867
     48  CB        51.9160   28.9530   46.6860 C.3   160  GLU160      0.0388
     49  CG        53.3990   29.2490   46.7110 C.3   160  GLU160      0.1160
     50  CD        54.0520   29.0850   45.3650 C.2   160  GLU160      0.3649
     51  OE1       53.5920   29.7310   44.3980 O.co2 160  GLU160     -0.2457
     52  OE2       55.0280   28.3080   45.2800 O.co2 160  GLU160     -0.2457
     53  N         56.2260   25.6580   48.0390 N.3   164  ASN164     -0.1240
     54  CA        57.0060   24.5240   47.5480 C.3   164  ASN164      0.1653
     55  C         58.4800   24.9110   47.5280 C.2   164  ASN164      0.2266
     56  O         58.8220   26.0080   47.1040 O.2   164  ASN164     -0.2867
     57  CB        56.5610   24.1450   46.1340 C.3   164  ASN164      0.1155
     58  CG        57.3570   22.9760   45.5560 C.2   164  ASN164      0.2627
     59  OD1       57.2200   21.8320   45.9860 O.2   164  ASN164     -0.2716
     60  ND2       58.1850   23.2650   44.5690 N.am  164  ASN164     -0.0877
     61  N         47.5230   30.5390   46.1510 N.3   189  ASP189     -0.1239
     62  CA        47.5680   29.2700   45.4380 C.3   189  ASP189      0.1674
     63  C         47.5170   28.1630   46.4820 C.2   189  ASP189      0.2266
     64  O         48.5370   27.7960   47.0660 O.2   189  ASP189     -0.2867
     65  CB        48.8680   29.1880   44.6280 C.3   189  ASP189      0.1410
     66  CG        49.0370   27.8600   43.9120 C.2   189  ASP189      0.3668
     67  OD1       48.1690   26.9840   44.0810 O.co2 189  ASP189     -0.2456
     68  OD2       50.0400   27.6940   43.1810 O.co2 189  ASP189     -0.2456
     69  N         47.2530   25.0060   46.1920 N.3   191  THR191     -0.1203
     70  CA        47.5240   23.6790   45.6460 C.3   191  THR191      0.1994
     71  C         47.8890   22.6400   46.6920 C.2   191  THR191      0.2617
     72  O         47.3170   21.5540   46.7090 O.2   191  THR191     -0.2717
     73  CB        48.6490   23.7130   44.5880 C.3   191  THR191      0.1784
     74  OG1       48.2480   24.5470   43.5020 O.3   191  THR191     -0.2211
     75  CG2       48.9360   22.3090   44.0490 C.3   191  THR191      0.0376
     76  N         48.8430   22.9600   47.5580 N.am  192  PHE192     -0.1975
     77  CA        49.2650   22.0110   48.5830 C.3   192  PHE192      0.1639
     78  C         48.2310   21.8310   49.6920 C.2   192  PHE192      0.2290
     79  O         48.1240   20.7610   50.2920 O.2   192  PHE192     -0.2864
     80  CB        50.5730   22.4720   49.2040 C.3   192  PHE192      0.0560
     81  CG        51.7800   22.1100   48.4100 C.ar  192  PHE192     -0.0200
     82  CD1       52.3130   20.8230   48.4790 C.ar  192  PHE192     -0.0042
     83  CD2       52.4100   23.0630   47.6150 C.ar  192  PHE192     -0.0042
     84  CE1       53.4590   20.4890   47.7710 C.ar  192  PHE192     -0.0003
     85  CE2       53.5580   22.7410   46.9030 C.ar  192  PHE192     -0.0003
     86  CZ        54.0860   21.4540   46.9800 C.ar  192  PHE192     -0.0000
     87  N         43.5800   29.9850   43.7200 N.3   209  LEU209     -0.1245
     88  CA        43.7630   29.1570   42.5480 C.3   209  LEU209      0.1561
     89  C         44.4590   27.8450   42.8910 C.2   209  LEU209      0.2260
     90  O         45.2440   27.7650   43.8390 O.2   209  LEU209     -0.2867
     91  CB        44.5330   29.9470   41.4810 C.3   209  LEU209      0.0270
     92  CG        46.0400   29.8210   41.2680 C.3   209  LEU209      0.0019
     93  CD1       46.3770   28.5000   40.5910 C.3   209  LEU209      0.0001
     94  CD2       46.5030   30.9730   40.4020 C.3   209  LEU209      0.0001
     95  N         45.9900   23.8230   41.1840 N.3   211  SER211     -0.1217
     96  CA        46.4980   23.1030   40.0500 C.3   211  SER211      0.1889
     97  C         45.8210   21.7510   40.2160 C.2   211  SER211      0.2288
     98  O         46.3890   20.8520   40.8320 O.2   211  SER211     -0.2866
     99  CB        48.0030   22.9500   40.1600 C.3   211  SER211      0.2089
    100  OG        48.4130   21.7290   39.5770 O.3   211  SER211     -0.2183
    101  N         45.7380   19.3330   38.7440 N.3   213  THR213     -0.1203
    102  CA        46.5640   18.2290   38.2770 C.3   213  THR213      0.1994
    103  C         47.0330   17.3760   39.4470 C.2   213  THR213      0.2617
    104  O         47.3210   16.1840   39.2910 O.2   213  THR213     -0.2717
    105  CB        47.8150   18.7520   37.5710 C.3   213  THR213      0.1784
    106  OG1       47.4260   19.6970   36.5730 O.3   213  THR213     -0.2211
    107  CG2       48.5990   17.6030   36.9450 C.3   213  THR213      0.0376
    108  N         47.1060   18.0020   40.6190 N.am  214  LYS214     -0.1979
    109  CA        47.5820   17.3460   41.8280 C.3   214  LYS214      0.1596
    110  C         46.5450   16.6090   42.6900 C.2   214  LYS214      0.2287
    111  O         46.1700   15.4670   42.3930 O.2   214  LYS214     -0.2864
    112  CB        48.3360   18.3710   42.6820 C.3   214  LYS214      0.0298
    113  CG        49.2210   19.3230   41.8890 C.3   214  LYS214      0.0038
    114  CD        50.5050   18.6320   41.4300 C.3   214  LYS214      0.0206
    115  CE        51.2460   19.4440   40.3670 C.3   214  LYS214      0.1093
    116  NZ        51.4040   20.8480   40.8290 N.3   214  LYS214     -0.1314
    117  N         45.7930   16.8790   33.6690 N.3   223  LEU223     -0.1245
    118  CA        46.2350   18.2270   34.0410 C.3   223  LEU223      0.1561
    119  C         45.0450   19.1820   34.0080 C.2   223  LEU223      0.2260
    120  O         44.1040   18.9760   33.2420 O.2   223  LEU223     -0.2867
    121  CB        47.3030   18.7610   33.0760 C.3   223  LEU223      0.0270
    122  CG        48.5380   17.9490   32.6760 C.3   223  LEU223      0.0019
    123  CD1       49.7330   18.8700   32.6010 C.3   223  LEU223      0.0001
    124  CD2       48.7870   16.8360   33.6570 C.3   223  LEU223      0.0001
    125  N         52.6020   15.6660   42.3910 N.3   342  PHE342     -0.1241
    126  CA        52.2430   15.1040   43.6890 C.3   342  PHE342      0.1605
    127  C         50.7430   15.1750   43.8970 C.2   342  PHE342      0.2264
    128  O         50.0270   15.7570   43.0890 O.2   342  PHE342     -0.2867
    129  CB        52.9170   15.9040   44.7990 C.3   342  PHE342      0.0534
    130  CG        52.6120   17.3690   44.7460 C.ar  342  PHE342     -0.0203
    131  CD1       51.4430   17.8650   45.2970 C.ar  342  PHE342     -0.0042
    132  CD2       53.4820   18.2550   44.1260 C.ar  342  PHE342     -0.0042
    133  CE1       51.1470   19.2230   45.2300 C.ar  342  PHE342     -0.0003
    134  CE2       53.1910   19.6210   44.0550 C.ar  342  PHE342     -0.0003
    135  CZ        52.0260   20.1010   44.6050 C.ar  342  PHE342     -0.0000
@<TRIPOS>BOND
     1     1     2    1
     2     6     5    1
     3   123   122    1
     4   122   121    1
     5   122   124    1
     6     5     2    1
     7   121   118    1
     8   120   119    2
     9     2     3    1
    10   117   118    1
    11    14    13    2
    12    13    12    1
    13    15    12    1
    14    15    16    1
    15   119   118    1
    16     4     3    2
    17     3     7   am
    18    12    11    1
    19    16    17    1
    20    18    17    1
    21    11     9   am
    22     7     8    1
    23    21    22    2
    24    21    20    1
    25     9    10    2
    26     9     8    1
    27    19    20    1
    28   106   105    1
    29   107   105    1
    30    20    23    1
    31    37    38    1
    32    40    39    2
    33    38    39    1
    34    38    41    1
    35    23    24    1
    36   105   102    1
    37   102   101    1
    38   102   103    1
    39    42    41    1
    40    34    32   ar
    41    34    35   ar
    42    41    43    1
    43    36    35    1
    44    32    30   ar
    45   104   103    2
    46    35    33   ar
    47   103   108   am
    48   100    99    1
    49    96    99    1
    50    96    97    1
    51    96    95    1
    52    28    27    2
    53    97    98    2
    54   115   116    1
    55   115   114    1
    56    94    92    1
    57    93    92    1
    58   108   109    1
    59    30    29    1
    60    30    31   ar
    61    27    26    1
    62    33    31   ar
    63    92    91    1
    64    29    26    1
    65   114   113    1
    66    91    88    1
    67   109   112    1
    68   109   110    1
    69   113   112    1
    70    26    25    1
    71   125   126    1
    72   111   110    2
    73    88    89    1
    74    88    87    1
    75    89    90    2
    76   128   127    2
    77    68    66   ar
    78    74    73    1
    79   126   127    1
    80   126   129    1
    81    66    67   ar
    82    66    65    1
    83    75    73    1
    84   134   132   ar
    85   134   135   ar
    86   132   130   ar
    87    51    50   ar
    88    60    58   am
    89    73    70    1
    90   135   133   ar
    91    65    62    1
    92   130   129    1
    93   130   131   ar
    94   133   131   ar
    95    52    50   ar
    96    50    49    1
    97    62    61    1
    98    62    63    1
    99    58    59    2
   100    58    57    1
   101    70    69    1
   102    70    71    1
   103    57    54    1
   104    63    64    2
   105    48    49    1
   106    48    45    1
   107    71    72    2
   108    71    76   am
   109    85    86   ar
   110    85    83   ar
   111    86    84   ar
   112    56    55    2
   113    44    45    1
   114    45    46    1
   115    55    54    1
   116    54    53    1
   117    76    77    1
   118    83    81   ar
   119    84    82   ar
   120    81    82   ar
   121    81    80    1
   122    77    80    1
   123    77    78    1
   124    46    47    2
   125    78    79    2
