@<TRIPOS>MOLECULE
tmp/1qguC00.pdb
 134 125 0 0 0
SMALL
GASTEIGER

@<TRIPOS>ATOM
      1  N         98.1030  -26.0170   29.6820 N.3    58  VAL58      -0.1245
      2  CA        97.1670  -25.4230   30.6540 C.3    58  VAL58       0.1561
      3  C         97.9230  -24.5540   31.6250 C.2    58  VAL58       0.2260
      4  O         97.3510  -23.6640   32.2980 O.2    58  VAL58      -0.2867
      5  CB        96.4000  -26.5390   31.4010 C.3    58  VAL58       0.0252
      6  CG1       95.3910  -26.0080   32.4240 C.3    58  VAL58       0.0019
      7  CG2       95.7310  -27.4790   30.3670 C.3    58  VAL58       0.0019
      8  N        100.2590  -21.8350   33.8550 N.3    60  GLY60      -0.1225
      9  CA       100.5530  -20.4380   34.0660 C.3    60  GLY60       0.1811
     10  C        102.0530  -20.2080   34.2970 C.2    60  GLY60       0.2280
     11  O        102.8750  -20.9980   33.8380 O.2    60  GLY60      -0.2866
     12  N        101.9870  -16.1620   38.6890 N.3    64  ALA64      -0.1245
     13  CA       100.7740  -16.7990   39.1770 C.3    64  ALA64       0.1562
     14  C        101.0330  -17.5870   40.4560 C.2    64  ALA64       0.2260
     15  O        100.2600  -17.5770   41.4210 O.2    64  ALA64      -0.2867
     16  CB       100.1820  -17.7030   38.0930 C.3    64  ALA64       0.0290
     17  N         99.6780  -14.8980   42.6070 N.3    68  GLY68      -0.1210
     18  CA        98.3240  -15.4490   42.5810 C.3    68  GLY68       0.1956
     19  C         98.0190  -16.4830   43.6380 C.2    68  GLY68       0.2611
     20  O         96.8620  -16.5960   44.0320 O.2    68  GLY68      -0.2717
     21  N         99.0150  -17.3060   44.0070 N.am   69  VAL69      -0.1979
     22  CA        98.7900  -18.4340   44.8880 C.3    69  VAL69       0.1595
     23  C         99.3030  -18.2050   46.2870 C.2    69  VAL69       0.2287
     24  O         98.5080  -18.3200   47.2260 O.2    69  VAL69      -0.2864
     25  CB        99.4650  -19.6820   44.2560 C.3    69  VAL69       0.0276
     26  CG1       99.5370  -20.8740   45.1800 C.3    69  VAL69       0.0022
     27  CG2       98.7320  -20.0050   42.9570 C.3    69  VAL69       0.0022
     28  N         90.2680  -13.6930   40.7920 N.3    94  GLY94      -0.1210
     29  CA        89.9470  -14.8980   40.0210 C.3    94  GLY94       0.1956
     30  C         89.9540  -16.1240   40.9380 C.2    94  GLY94       0.2611
     31  O         89.2320  -17.0830   40.6580 O.2    94  GLY94      -0.2717
     32  N         90.8170  -16.0980   41.9590 N.am   95  ARG95      -0.1979
     33  CA        90.9650  -17.2730   42.8480 C.3    95  ARG95       0.1597
     34  C         90.1820  -17.0030   44.1440 C.2    95  ARG95       0.2287
     35  O         90.3650  -15.9450   44.7250 O.2    95  ARG95      -0.2864
     36  CB        92.4610  -17.4740   43.1410 C.3    95  ARG95       0.0334
     37  CG        92.7210  -18.7110   44.0360 C.3    95  ARG95       0.0492
     38  CD        94.1890  -19.0120   43.9710 C.3    95  ARG95       0.2205
     39  NE        94.7020  -20.1490   44.7520 N.pl3  95  ARG95      -0.0865
     40  CZ        95.5410  -19.9540   45.7860 C.cat  95  ARG95       0.5346
     41  NH1       95.7360  -18.7470   46.3210 N.pl3  95  ARG95       0.1354
     42  NH2       96.1720  -21.0470   46.2720 N.pl3  95  ARG95       0.1354
     43  N        103.6610  -22.5010   37.2660 N.3   190  GLN190     -0.1245
     44  CA       103.3780  -21.8690   38.5650 C.3   190  GLN190      0.1566
     45  C        104.3390  -22.3620   39.6600 C.2   190  GLN190      0.2260
     46  O        104.6630  -21.5840   40.5680 O.2   190  GLN190     -0.2867
     47  CB       101.9560  -22.1910   39.0400 C.3   190  GLN190      0.0367
     48  CG       100.8220  -21.5830   38.1960 C.3   190  GLN190      0.0905
     49  CD       100.3630  -22.5350   37.1110 C.2   190  GLN190      0.2608
     50  OE1      101.1100  -23.1290   36.3220 O.2   190  GLN190     -0.2717
     51  NE2       99.0180  -22.7550   36.9700 N.am  190  GLN190     -0.0878
     52  N         89.9950  -22.0000   49.7400 N.3   229  ILE229     -0.1245
     53  CA        89.1330  -21.8050   48.5510 C.3   229  ILE229      0.1561
     54  C         87.7030  -22.0940   48.9230 C.2   229  ILE229      0.2260
     55  O         87.3090  -23.1540   49.4240 O.2   229  ILE229     -0.2867
     56  CB        89.5740  -22.7660   47.4150 C.3   229  ILE229      0.0252
     57  CG1       91.0490  -22.5160   47.1080 C.3   229  ILE229      0.0019
     58  CG2       88.7000  -22.5110   46.1920 C.3   229  ILE229      0.0019
     59  CD1       91.4940  -21.1130   46.7840 C.3   229  ILE229      0.0001
     60  N         99.1720  -30.2690   35.9560 N.3   378  GLU378     -0.1231
     61  CA        99.8050  -29.2660   35.1350 C.3   378  GLU378      0.1699
     62  C        101.3070  -29.1840   35.4510 C.2   378  GLU378      0.2592
     63  O        102.0800  -29.0590   34.5010 O.2   378  GLU378     -0.2718
     64  CB        99.2130  -27.8520   35.4410 C.3   378  GLU378      0.0402
     65  CG        97.7160  -27.7210   35.1500 C.3   378  GLU378      0.1161
     66  CD        97.2440  -26.2950   35.4300 C.2   378  GLU378      0.3649
     67  OE1       98.0200  -25.3380   35.4140 O.co2 378  GLU378     -0.2457
     68  OE2       96.0050  -26.1620   35.6960 O.co2 378  GLU378     -0.2457
     69  N        101.6980  -29.0910   36.7360 N.am  379  PHE379     -0.1976
     70  CA       103.0480  -28.6520   37.0690 C.3   379  PHE379      0.1639
     71  C        103.6670  -29.3790   38.2830 C.2   379  PHE379      0.2290
     72  O        104.6930  -28.9250   38.7930 O.2   379  PHE379     -0.2864
     73  CB       103.0340  -27.1260   37.3550 C.3   379  PHE379      0.0560
     74  CG       102.0330  -26.7640   38.4360 C.ar  379  PHE379     -0.0200
     75  CD1      102.2440  -27.0310   39.7830 C.ar  379  PHE379     -0.0042
     76  CD2      100.8600  -26.1250   38.0510 C.ar  379  PHE379     -0.0042
     77  CE1      101.2820  -26.6650   40.7310 C.ar  379  PHE379     -0.0003
     78  CE2       99.9050  -25.7850   39.0010 C.ar  379  PHE379     -0.0003
     79  CZ       100.0820  -26.0420   40.3340 C.ar  379  PHE379     -0.0000
     80  N         89.8090  -27.3340   35.1660 N.3   422  GLY422     -0.1210
     81  CA        89.7500  -25.8850   35.3950 C.3   422  GLY422      0.1956
     82  C         88.8190  -25.1340   34.4590 C.2   422  GLY422      0.2612
     83  O         88.1470  -25.7070   33.5860 O.2   422  GLY422     -0.2717
     84  N         88.9370  -23.8050   34.4960 N.am  423  ILE423     -0.1965
     85  CA        88.0060  -22.9430   33.7110 C.3   423  ILE423      0.1727
     86  C         88.3090  -22.9460   32.2250 C.2   423  ILE423      0.2619
     87  O         87.3770  -22.8370   31.4220 O.2   423  ILE423     -0.2715
     88  CB        88.1670  -21.5050   34.2540 C.3   423  ILE423      0.0290
     89  CG1       87.0740  -20.5520   33.7260 C.3   423  ILE423      0.0022
     90  CG2       89.5190  -20.8220   34.0080 C.3   423  ILE423      0.0023
     91  CD1       85.6590  -21.0170   34.0280 C.3   423  ILE423      0.0001
     92  N         89.5840  -23.1810   31.8670 N.am  424  LYS424     -0.1918
     93  CA        89.8690  -23.2140   30.4030 C.3   424  LYS424      0.1944
     94  C         89.4580  -24.5630   29.8400 C.2   424  LYS424      0.2658
     95  O         89.2440  -24.6330   28.6220 O.2   424  LYS424     -0.2711
     96  CB        91.3770  -23.0170   30.1770 C.2   424  LYS424     -0.0002
     97  CG        91.9680  -21.7750   30.7730 C.2   424  LYS424     -0.0270
     98  CD        93.4260  -21.4130   30.4440 C.3   424  LYS424      0.0462
     99  CE        94.3760  -22.5510   30.8680 C.3   424  LYS424      0.1140
    100  NZ        94.3790  -22.7360   32.3550 N.3   424  LYS424     -0.1310
    101  N         89.1330  -25.5660   30.6570 N.am  425  GLU425     -0.1974
    102  CA        88.7020  -26.8540   30.1770 C.3   425  GLU425      0.1602
    103  C         87.1850  -27.0040   30.2170 C.2   425  GLU425      0.2287
    104  O         86.5390  -27.7580   29.4650 O.2   425  GLU425     -0.2864
    105  CB        89.3060  -27.9560   31.1050 C.3   425  GLU425      0.0415
    106  CG        90.8380  -28.0870   31.0790 C.3   425  GLU425      0.1163
    107  CD        91.5950  -26.8860   31.5970 C.2   425  GLU425      0.3649
    108  OE1       91.4300  -26.5310   32.8110 O.co2 425  GLU425     -0.2457
    109  OE2       92.3530  -26.2180   30.8850 O.co2 425  GLU425     -0.2457
    110  N         84.3620  -27.7130   38.0340 N.3   438  GLN438     -0.1245
    111  CA        85.6270  -26.9990   38.2320 C.3   438  GLN438      0.1566
    112  C         86.2050  -27.4320   39.5920 C.2   438  GLN438      0.2260
    113  O         85.5810  -27.2870   40.6390 O.2   438  GLN438     -0.2867
    114  CB        85.3410  -25.4910   38.2800 C.3   438  GLN438      0.0367
    115  CG        85.0080  -24.8980   36.8860 C.3   438  GLN438      0.0905
    116  CD        85.0390  -23.3600   37.0310 C.2   438  GLN438      0.2608
    117  OE1       86.1120  -22.7710   37.2720 O.2   438  GLN438     -0.2717
    118  NE2       83.8610  -22.7410   36.8770 N.am  438  GLN438     -0.0878
    119  N         89.2130  -26.3430   40.7700 N.3   440  HIS440     -0.1226
    120  CA        90.0720  -25.3290   41.3770 C.3   440  HIS440      0.1752
    121  C         89.1580  -24.3330   42.1220 C.2   440  HIS440      0.2596
    122  O         89.1400  -24.2660   43.3490 O.2   440  HIS440     -0.2718
    123  CB        90.8890  -24.5240   40.3890 C.3   440  HIS440      0.0759
    124  CG        91.7340  -25.2130   39.3870 C.ar  440  HIS440      0.0818
    125  ND1       93.0850  -25.0300   39.2900 N.ar  440  HIS440     -0.2268
    126  CD2       91.4050  -26.0450   38.3560 C.ar  440  HIS440      0.1154
    127  CE1       93.6000  -25.7220   38.2890 C.ar  440  HIS440      0.1986
    128  NE2       92.5910  -26.3230   37.7080 N.ar  440  HIS440     -0.2212
    129  N         88.2260  -23.7040   41.3970 N.am  441  SER441     -0.1952
    130  CA        87.2990  -22.7630   42.0350 C.3   441  SER441      0.1924
    131  C         86.0800  -23.4180   42.6580 C.2   441  SER441      0.2314
    132  O         85.1770  -22.7250   43.1580 O.2   441  SER441     -0.2863
    133  CB        86.7530  -21.8170   40.9320 C.3   441  SER441      0.2116
    134  OG        85.9080  -22.5790   40.0540 O.3   441  SER441     -0.2180
@<TRIPOS>BOND
     1    95    94    2
     2   104   103    2
     3     1     2    1
     4    94    93    1
     5    94   101   am
     6    96    93    1
     7    96    97    2
     8   102   103    1
     9   102   101    1
    10   102   105    1
    11     7     5    1
    12    93    92    1
    13    98    97    1
    14    98    99    1
    15     2     5    1
    16     2     3    1
    17    99   100    1
    18   109   107   ar
    19   106   105    1
    20   106   107    1
    21     5     6    1
    22    87    86    2
    23   107   108   ar
    24     3     4    2
    25    92    86   am
    26    86    85    1
    27    83    82    2
    28    85    88    1
    29    85    84    1
    30    89    91    1
    31    89    88    1
    32    11    10    2
    33     8     9    1
    34    90    88    1
    35     9    10    1
    36    82    84   am
    37    82    81    1
    38    63    62    2
    39    61    64    1
    40    61    62    1
    41    61    60    1
    42    65    66    1
    43    65    64    1
    44    80    81    1
    45    67    66   ar
    46    66    68   ar
    47    62    69   am
    48    50    49    2
    49    69    70    1
    50   118   116   am
    51   115   116    1
    52   115   114    1
    53    51    49   am
    54   116   117    2
    55    70    73    1
    56    70    71    1
    57    49    48    1
    58    43    44    1
    59    73    74    1
    60   128   127   ar
    61   128   126   ar
    62   110   111    1
    63    76    74   ar
    64    76    78   ar
    65    16    13    1
    66    48    47    1
    67   111   114    1
    68   111   112    1
    69    71    72    2
    70   127   125   ar
    71   126   124   ar
    72    74    75   ar
    73    44    47    1
    74    44    45    1
    75    12    13    1
    76    78    79   ar
    77    13    14    1
    78   125   124   ar
    79   124   123    1
    80   112   113    2
    81    45    46    2
    82    75    77   ar
    83    29    28    1
    84    29    30    1
    85   134   133    1
    86    79    77   ar
    87   123   120    1
    88    14    15    2
    89    31    30    2
    90   119   120    1
    91   133   130    1
    92    30    32   am
    93   120   121    1
    94   129   130    1
    95   129   121   am
    96    32    33    1
    97   130   131    1
    98   121   122    2
    99    18    17    1
   100    18    19    1
   101   131   132    2
   102    33    36    1
   103    33    34    1
   104    27    25    1
   105    36    37    1
   106    19    21   am
   107    19    20    2
   108    38    37    1
   109    38    39    1
   110    21    22    1
   111    34    35    2
   112    25    22    1
   113    25    26    1
   114    39    40    2
   115    22    23    1
   116    40    42    1
   117    40    41    1
   118    58    56    1
   119    23    24    2
   120    59    57    1
   121    57    56    1
   122    56    53    1
   123    53    54    1
   124    53    52    1
   125    54    55    2
