@<TRIPOS>MOLECULE
tmp/1qgwA00.pdb
 132 128 0 0 0
SMALL
GASTEIGER

@<TRIPOS>ATOM
      1  N         12.3320   27.7790   14.3050 N.3    11  THR11      -0.1218
      2  CA        11.3320   26.7310   14.0990 C.3    11  THR11       0.1862
      3  C         12.0350   25.4250   13.7580 C.2    11  THR11       0.2287
      4  O         12.8480   25.3960   12.8230 O.2    11  THR11      -0.2866
      5  CB        10.3500   27.0650   12.9560 C.3    11  THR11       0.1770
      6  OG1        9.9120   28.4210   13.0720 O.3    11  THR11      -0.2211
      7  CG2        9.1330   26.1440   13.0180 C.3    11  THR11       0.0375
      8  N         11.5510   21.7460   12.4050 N.3    13  PHE13      -0.1241
      9  CA        10.6070   20.8970   11.6860 C.3    13  PHE13       0.1605
     10  C         11.2030   19.4900   11.5660 C.2    13  PHE13       0.2264
     11  O         11.9850   19.2530   10.6460 O.2    13  PHE13      -0.2867
     12  CB        10.3380   21.4310   10.2900 C.3    13  PHE13       0.0534
     13  CG         9.9170   22.8520   10.0810 C.ar   13  PHE13      -0.0203
     14  CD1       10.8580   23.8710   10.0350 C.ar   13  PHE13      -0.0042
     15  CD2        8.5810   23.1710    9.8910 C.ar   13  PHE13      -0.0042
     16  CE1       10.4700   25.1800    9.7900 C.ar   13  PHE13      -0.0003
     17  CE2        8.1780   24.4760    9.6460 C.ar   13  PHE13      -0.0003
     18  CZ         9.1360   25.4770    9.5960 C.ar   13  PHE13      -0.0000
     19  N          9.9860   16.6840   10.1540 N.3    15  HIS15      -0.1241
     20  CA         8.8120   16.3270    9.3510 C.3    15  HIS15       0.1621
     21  C          9.0950   15.1040    8.4840 C.2    15  HIS15       0.2264
     22  O          8.6580   14.9750    7.3320 O.2    15  HIS15      -0.2867
     23  CB         8.3440   17.5290    8.5170 C.3    15  HIS15       0.0745
     24  CG         7.6260   18.5680    9.3340 C.ar   15  HIS15       0.0817
     25  ND1        6.9710   19.6440    8.7690 N.ar   15  HIS15      -0.2268
     26  CD2        7.4660   18.6950   10.6760 C.ar   15  HIS15       0.1154
     27  CE1        6.4520   20.3840    9.7290 C.ar   15  HIS15       0.1986
     28  NE2        6.7330   19.8350   10.9030 N.ar   15  HIS15      -0.2212
     29  N          6.3770   13.4210    6.2980 N.3    18  CYS18      -0.1221
     30  CA         5.3260   14.4090    5.9970 C.3    18  CYS18       0.1808
     31  C          5.0070   14.4670    4.5110 C.2    18  CYS18       0.2602
     32  O          5.9230   14.6040    3.6880 O.2    18  CYS18      -0.2717
     33  CB         5.8570   15.7740    6.4820 C.3    18  CYS18       0.0970
     34  SG         4.6790   17.1400    6.1380 S.3    18  CYS18      -0.0800
     35  N          3.7260   14.4350    4.1400 N.am   19  SER19      -0.1938
     36  CA         3.3670   14.4220    2.7200 C.3    19  SER19       0.2055
     37  C          3.4400   15.8020    2.0830 C.2    19  SER19       0.2642
     38  O          3.3750   15.8880    0.8460 O.2    19  SER19      -0.2714
     39  CB         1.9640   13.8330    2.5250 C.3    19  SER19       0.2130
     40  OG         0.9870   14.6440    3.1800 O.3    19  SER19      -0.2179
     41  N          3.5940   16.8630    2.8710 N.am   20  ARG20      -0.1977
     42  CA         3.8840   18.1870    2.3130 C.3    20  ARG20       0.1597
     43  C          5.3440   18.2430    1.8920 C.2    20  ARG20       0.2287
     44  O          6.2550   18.1910    2.7210 O.2    20  ARG20      -0.2864
     45  CB         3.5440   19.2350    3.3770 C.3    20  ARG20       0.0334
     46  CG         3.5150   20.6810    2.9140 C.3    20  ARG20       0.0492
     47  CD         4.9240   21.2370    2.7110 C.3    20  ARG20       0.2205
     48  NE         4.8700   22.6960    2.6930 N.pl3  20  ARG20      -0.0865
     49  CZ         5.9030   23.5110    2.5260 C.cat  20  ARG20       0.5346
     50  NH1        7.1170   23.0290    2.3250 N.pl3  20  ARG20       0.1354
     51  NH2        5.7240   24.8280    2.5810 N.pl3  20  ARG20       0.1354
     52  N          9.0170   19.2030    0.9580 N.2    22  PRO22      -0.2571
     53  CA         9.9860   20.2410    1.2490 C.3    22  PRO22       0.2026
     54  C         10.2840   21.0730    0.0090 C.2    22  PRO22       0.2683
     55  O         10.4410   20.4910   -1.0710 O.2    22  PRO22      -0.2709
     56  CB        11.2610   19.5350    1.7530 C.2    22  PRO22       0.0085
     57  CG        10.9250   18.0760    1.6970 C.2    22  PRO22       0.0180
     58  CD         9.5670   17.8540    1.1000 C.2    22  PRO22       0.0938
     59  N         10.3610   22.3900    0.1470 N.am   23  LYS23      -0.1959
     60  CA        10.7090   23.2420   -0.9860 C.3    23  LYS23       0.1728
     61  C         11.5640   24.4280   -0.5810 C.2    23  LYS23       0.2616
     62  O         11.8290   25.3020   -1.4190 O.2    23  LYS23      -0.2715
     63  CB         9.4420   23.7150   -1.7100 C.3    23  LYS23       0.0311
     64  CG         8.6680   24.7990   -0.9950 C.3    23  LYS23       0.0038
     65  CD         7.3360   25.1240   -1.6510 C.3    23  LYS23       0.0206
     66  CE         6.5300   26.0370   -0.7110 C.3    23  LYS23       0.1093
     67  NZ         5.2940   26.5020   -1.4170 N.3    23  LYS23      -0.1314
     68  N         12.0300   24.4950    0.6660 N.am   24  GLU24      -0.1963
     69  CA        12.6350   25.7190    1.1710 C.3    24  GLU24       0.1733
     70  C         14.1320   25.6050    1.4020 C.2    24  GLU24       0.2617
     71  O         14.7810   26.6230    1.6540 O.2    24  GLU24      -0.2715
     72  CB        11.9480   26.1430    2.4880 C.3    24  GLU24       0.0429
     73  CG        10.5770   26.7520    2.2770 C.3    24  GLU24       0.1163
     74  CD         9.3980   25.8160    2.2090 C.2    24  GLU24       0.3649
     75  OE1        9.5560   24.5810    2.3180 O.co2  24  GLU24      -0.2457
     76  OE2        8.2650   26.3260    2.0130 O.co2  24  GLU24      -0.2457
     77  N         14.7000   24.4030    1.3120 N.am   25  SER25      -0.1950
     78  CA        16.1320   24.2410    1.5610 C.3    25  SER25       0.1924
     79  C         16.9180   24.7600    0.3540 C.2    25  SER25       0.2314
     80  O         16.3120   24.9400   -0.7070 O.2    25  SER25      -0.2863
     81  CB        16.5280   22.7800    1.7690 C.3    25  SER25       0.2116
     82  OG        16.3190   22.0210    0.5990 O.3    25  SER25      -0.2180
     83  N         17.6460   13.5820    6.7830 N.3    34  ASP34      -0.1225
     84  CA        17.8440   15.0220    6.8770 C.3    34  ASP34       0.1805
     85  C         17.1150   15.7840    5.7780 C.2    34  ASP34       0.2598
     86  O         16.8270   16.9750    5.9520 O.2    34  ASP34      -0.2718
     87  CB        19.3260   15.4120    6.8260 C.3    34  ASP34       0.1424
     88  CG        20.0760   15.0300    8.0810 C.2    34  ASP34       0.3668
     89  OD1       19.4740   14.9680    9.1690 O.co2  34  ASP34      -0.2456
     90  OD2       21.2930   14.7620    8.0000 O.co2  34  ASP34      -0.2456
     91  N         16.7700   15.1680    4.6600 N.am   35  ASP35      -0.1960
     92  CA        16.0610   15.7860    3.5700 C.3    35  ASP35       0.1840
     93  C         14.5850   16.0240    3.8940 C.2    35  ASP35       0.2622
     94  O         13.9010   16.6570    3.0800 O.2    35  ASP35      -0.2715
     95  CB        16.1710   14.9110    2.3030 C.3    35  ASP35       0.1450
     96  CG        17.6350   14.8210    1.8510 C.2    35  ASP35       0.3671
     97  OD1       18.4180   15.7320    2.1860 O.co2  35  ASP35      -0.2456
     98  OD2       17.9580   13.8050    1.1810 O.co2  35  ASP35      -0.2456
     99  N         14.1040   15.5510    5.0410 N.am   36  GLU36      -0.1963
    100  CA        12.7210   15.7960    5.4440 C.3    36  GLU36       0.1733
    101  C         12.6730   16.5580    6.7590 C.2    36  GLU36       0.2616
    102  O         11.6200   16.5890    7.4090 O.2    36  GLU36      -0.2715
    103  CB        11.9640   14.4770    5.6030 C.3    36  GLU36       0.0429
    104  CG        11.8620   13.6970    4.2840 C.3    36  GLU36       0.1163
    105  CD        11.0590   12.4220    4.5230 C.2    36  GLU36       0.3649
    106  OE1        9.8270   12.5200    4.5240 O.co2  36  GLU36      -0.2457
    107  OE2       11.6500   11.3450    4.7200 O.co2  36  GLU36      -0.2457
    108  N         13.7970   17.1440    7.1630 N.am   37  MET37      -0.1963
    109  CA        13.8790   17.8780    8.4180 C.3    37  MET37       0.1736
    110  C         14.5390   19.2340    8.1760 C.2    37  MET37       0.2616
    111  O         15.3180   19.4080    7.2400 O.2    37  MET37      -0.2715
    112  CB        14.6920   17.0780    9.4440 C.3    37  MET37       0.0427
    113  CG        14.0880   15.7290    9.8010 C.3    37  MET37       0.0599
    114  SD        14.8650   14.9110   11.1970 S.3    37  MET37      -0.1393
    115  CE        16.4900   14.5740   10.4920 C.3    37  MET37       0.0692
    116  N         14.2630   20.1970    9.0580 N.am   38  MET38      -0.1977
    117  CA        14.7930   21.5450    8.8600 C.3    38  MET38       0.1605
    118  C         14.8550   22.3140   10.1670 C.2    38  MET38       0.2287
    119  O         13.9860   22.1990   11.0340 O.2    38  MET38      -0.2864
    120  CB        13.9420   22.3190    7.8340 C.3    38  MET38       0.0413
    121  CG        14.3640   23.7780    7.6870 C.3    38  MET38       0.0598
    122  SD        13.5420   24.5950    6.2940 S.3    38  MET38      -0.1393
    123  CE        14.6030   23.9700    4.9740 C.3    38  MET38       0.0692
    124  N         14.8180   26.3460   10.9630 N.3    40  LYS40      -0.1245
    125  CA        14.6600   27.7030   10.4290 C.3    40  LYS40       0.1561
    126  C         14.9890   28.7040   11.5320 C.2    40  LYS40       0.2260
    127  O         14.5780   28.5400   12.6790 O.2    40  LYS40      -0.2867
    128  CB        13.1980   27.9070    9.9850 C.3    40  LYS40       0.0271
    129  CG        12.8870   29.3150    9.4800 C.3    40  LYS40       0.0035
    130  CD        11.3900   29.4300    9.1670 C.3    40  LYS40       0.0206
    131  CE        11.0180   30.8580    8.7790 C.3    40  LYS40       0.1093
    132  NZ         9.5380   31.0060    8.5970 N.3    40  LYS40      -0.1314
@<TRIPOS>BOND
     1    63    64    1
     2    63    60    1
     3    65    64    1
     4    65    66    1
     5    62    61    2
     6    67    66    1
     7    55    54    2
     8    60    61    1
     9    60    59    1
    10    80    79    2
    11    61    68   am
    12    54    59   am
    13    54    53    1
    14    79    78    1
    15    82    81    1
    16    68    69    1
    17    38    37    2
    18    52    58    2
    19    52    53    1
    20    58    57    1
    21    69    70    1
    22    69    72    1
    23    98    96   ar
    24    53    56    1
    25    77    70   am
    26    77    78    1
    27    70    71    2
    28    78    81    1
    29    57    56    2
    30    96    97   ar
    31    96    95    1
    32    43    42    1
    33    43    44    2
    34    76    74   ar
    35    37    36    1
    36    37    41   am
    37    74    73    1
    38    74    75   ar
    39    73    72    1
    40    95    92    1
    41    42    41    1
    42    42    45    1
    43    50    49    1
    44    39    36    1
    45    39    40    1
    46    49    51    1
    47    49    48    2
    48    48    47    1
    49    47    46    1
    50    36    35    1
    51    46    45    1
    52    94    93    2
    53    92    93    1
    54    92    91    1
    55    32    31    2
    56    93    99   am
    57    35    31   am
    58   104   105    1
    59   104   103    1
    60    31    30    1
    61   105   106   ar
    62   105   107   ar
    63    91    85   am
    64   123   122    1
    65    99   100    1
    66   100   103    1
    67   100   101    1
    68    85    86    2
    69    85    84    1
    70    30    29    1
    71    30    33    1
    72    34    33    1
    73   122   121    1
    74   101   108   am
    75   101   102    2
    76    83    84    1
    77    87    84    1
    78    87    88    1
    79   108   109    1
    80   111   110    2
    81    22    21    2
    82   121   120    1
    83   120   117    1
    84    90    88   ar
    85    88    89   ar
    86   110   109    1
    87   110   116   am
    88   109   112    1
    89    21    20    1
    90    23    24    1
    91    23    20    1
    92   132   131    1
    93    25    24   ar
    94    25    27   ar
    95   131   130    1
    96   117   116    1
    97   117   118    1
    98   130   129    1
    99    24    26   ar
   100    20    19    1
   101   112   113    1
   102   129   128    1
   103    18    17   ar
   104    18    16   ar
   105    17    15   ar
   106    27    28   ar
   107    16    14   ar
   108   113   114    1
   109    15    13   ar
   110   128   125    1
   111    14    13   ar
   112    13    12    1
   113   118   119    2
   114    12     9    1
   115   125   124    1
   116   125   126    1
   117   115   114    1
   118    11    10    2
   119    26    28   ar
   120   126   127    2
   121    10     9    1
   122     9     8    1
   123     4     3    2
   124     5     7    1
   125     5     6    1
   126     5     2    1
   127     3     2    1
   128     2     1    1
