@<TRIPOS>MOLECULE
tmp/1qgwA02.pdb
 84 86 0 0 0
SMALL
GASTEIGER

@<TRIPOS>ATOM
      1  N         -4.1350   33.8080   41.1420 N.3    63  PHE63      -0.1227
      2  CA        -3.0780   33.0710   41.8340 C.3    63  PHE63       0.1736
      3  C         -3.2580   31.5590   41.8010 C.2    63  PHE63       0.2595
      4  O         -3.0390   30.8310   42.7780 O.2    63  PHE63      -0.2718
      5  CB        -2.8780   33.5720   43.2760 C.3    63  PHE63       0.0547
      6  CG        -2.7490   35.0730   43.3260 C.ar   63  PHE63      -0.0202
      7  CD1       -1.8580   35.7400   42.5110 C.ar   63  PHE63      -0.0042
      8  CD2       -3.5680   35.7970   44.1880 C.ar   63  PHE63      -0.0042
      9  CE1       -1.7670   37.1210   42.5330 C.ar   63  PHE63      -0.0003
     10  CE2       -3.4610   37.1810   44.2210 C.ar   63  PHE63      -0.0003
     11  CZ        -2.5660   37.8370   43.4060 C.ar   63  PHE63      -0.0000
     12  N         -3.5930   31.0610   40.6140 N.am   64  GLU64      -0.1965
     13  CA        -3.6110   29.6340   40.3180 C.3    64  GLU64       0.1733
     14  C         -2.3280   29.2410   39.5910 C.2    64  GLU64       0.2616
     15  O         -1.4630   30.0800   39.2980 O.2    64  GLU64      -0.2715
     16  CB        -4.8360   29.3220   39.4270 C.3    64  GLU64       0.0429
     17  CG        -6.1340   29.4360   40.2480 C.3    64  GLU64       0.1163
     18  CD        -6.2800   28.2280   41.1550 C.2    64  GLU64       0.3649
     19  OE1       -6.5040   27.1220   40.6310 O.co2  64  GLU64      -0.2457
     20  OE2       -6.1660   28.3690   42.3950 O.co2  64  GLU64      -0.2457
     21  N         -2.2110   27.9580   39.2730 N.am   65  LYS65      -0.1963
     22  CA        -0.9920   27.4780   38.6270 C.3    65  LYS65       0.1728
     23  C         -1.3080   26.3580   37.6400 C.2    65  LYS65       0.2617
     24  O         -2.4560   25.9170   37.5220 O.2    65  LYS65      -0.2715
     25  CB         0.0490   27.0210   39.6550 C.3    65  LYS65       0.0311
     26  CG        -0.4070   25.8590   40.5270 C.3    65  LYS65       0.0038
     27  CD         0.6660   25.4800   41.5380 C.3    65  LYS65       0.0206
     28  CE         1.8430   24.7830   40.8700 C.3    65  LYS65       0.1093
     29  NZ         1.5380   23.3610   40.5160 N.3    65  LYS65      -0.1314
     30  N         -0.2670   25.9420   36.9200 N.am   66  GLY66      -0.1940
     31  CA        -0.3930   24.7870   36.0360 C.3    66  GLY66       0.2014
     32  C         -0.1370   23.5110   36.8350 C.2    66  GLY66       0.2639
     33  O          0.0100   23.5680   38.0490 O.2    66  GLY66      -0.2714
     34  N         -0.0380   22.3730   36.1520 N.am   67  ILE67      -0.1963
     35  CA         0.2040   21.1130   36.8590 C.3    67  ILE67       0.1727
     36  C          1.6090   21.0970   37.4470 C.2    67  ILE67       0.2616
     37  O          1.7980   20.7430   38.6200 O.2    67  ILE67      -0.2715
     38  CB         0.0090   19.9080   35.9150 C.3    67  ILE67       0.0290
     39  CG1       -1.4310   19.8970   35.3840 C.3    67  ILE67       0.0022
     40  CG2        0.3320   18.5800   36.5980 C.3    67  ILE67       0.0023
     41  CD1       -2.5330   19.8880   36.4270 C.3    67  ILE67       0.0001
     42  N          2.5980   21.4910   36.6440 N.am   68  ASP68      -0.1957
     43  CA         3.9780   21.4410   37.1190 C.3    68  ASP68       0.1840
     44  C          4.2780   22.4690   38.2080 C.2    68  ASP68       0.2623
     45  O          3.7030   23.5540   38.3230 O.2    68  ASP68      -0.2715
     46  CB         4.9460   21.6880   35.9470 C.3    68  ASP68       0.1450
     47  CG         5.2450   20.4240   35.1600 C.2    68  ASP68       0.3671
     48  OD1        5.2480   19.3020   35.7150 O.co2  68  ASP68      -0.2456
     49  OD2        5.5370   20.5830   33.9550 O.co2  68  ASP68      -0.2456
     50  N          5.2940   22.1140   39.0060 N.am   69  GLY69      -0.1940
     51  CA         5.8870   23.0330   39.9780 C.3    69  GLY69       0.1998
     52  C          5.1720   22.9520   41.3310 C.2    69  GLY69       0.2481
     53  O          4.0150   22.5640   41.4520 O.2    69  GLY69      -0.2729
     54  N          5.8680   23.3870   42.3670 N.am   70  PRO70      -0.2715
     55  CA         5.2950   23.6480   43.6840 C.3    70  PRO70       0.1536
     56  C          4.3840   24.8660   43.6460 C.2    70  PRO70       0.2599
     57  O          4.5920   25.7690   42.8390 O.2    70  PRO70      -0.2715
     58  CB         6.5120   23.8940   44.6000 C.3    70  PRO70       0.0310
     59  CG         7.4660   24.5580   43.6270 C.3    70  PRO70       0.0237
     60  CD         7.2000   23.9950   42.2490 C.3    70  PRO70       0.0939
     61  N          3.3830   24.8670   44.5090 N.am   71  PHE71      -0.1960
     62  CA         2.6120   26.0660   44.8090 C.3    71  PHE71       0.1771
     63  C          3.3560   26.9140   45.8290 C.2    71  PHE71       0.2620
     64  O          3.5060   26.4990   46.9870 O.2    71  PHE71      -0.2715
     65  CB         1.2560   25.6470   45.3800 C.3    71  PHE71       0.0574
     66  CG         0.3160   26.7740   45.7010 C.ar   71  PHE71      -0.0200
     67  CD1       -0.2040   27.5560   44.6890 C.ar   71  PHE71      -0.0042
     68  CD2       -0.0590   27.0250   47.0120 C.ar   71  PHE71      -0.0042
     69  CE1       -1.0750   28.5930   44.9780 C.ar   71  PHE71      -0.0003
     70  CE2       -0.9320   28.0630   47.3140 C.ar   71  PHE71      -0.0003
     71  CZ        -1.4390   28.8420   46.2950 C.ar   71  PHE71      -0.0000
     72  N          3.7700   28.0970   45.3970 N.am   72  THR72      -0.1937
     73  CA         4.6000   28.9610   46.2300 C.3    72  THR72       0.2028
     74  C          3.9170   30.2840   46.5690 C.2    72  THR72       0.2642
     75  O          4.5030   31.0980   47.3010 O.2    72  THR72      -0.2714
     76  CB         5.9280   29.2640   45.4960 C.3    72  THR72       0.1808
     77  OG1        5.6020   29.7950   44.2000 O.3    72  THR72      -0.2208
     78  CG2        6.7600   28.0010   45.3320 C.3    72  THR72       0.0379
     79  N          2.7270   30.5370   46.0470 N.am   73  SER73      -0.1949
     80  CA         1.9940   31.7540   46.4160 C.3    73  SER73       0.1924
     81  C          1.6360   31.7140   47.9010 C.2    73  SER73       0.2314
     82  O          1.3240   30.6570   48.4500 O.2    73  SER73      -0.2863
     83  CB         0.7350   31.8710   45.5620 C.3    73  SER73       0.2116
     84  OG         0.1550   33.1790   45.6830 O.3    73  SER73      -0.2180
@<TRIPOS>BOND
     1    49    47   ar
     2    47    48   ar
     3    47    46    1
     4    39    38    1
     5    39    41    1
     6    38    40    1
     7    38    35    1
     8    46    43    1
     9    31    32    1
    10    31    30    1
    11    34    32   am
    12    34    35    1
    13    42    43    1
    14    42    36   am
    15    32    33    2
    16    35    36    1
    17    30    23   am
    18    43    44    1
    19    36    37    2
    20    24    23    2
    21    23    22    1
    22    44    45    2
    23    44    50   am
    24    22    21    1
    25    22    25    1
    26    50    51    1
    27    21    14   am
    28    15    14    2
    29    16    17    1
    30    16    13    1
    31    14    13    1
    32    25    26    1
    33    51    52    1
    34    17    18    1
    35    13    12    1
    36    29    28    1
    37    26    27    1
    38    12     3   am
    39    19    18   ar
    40    28    27    1
    41     1     2    1
    42    18    20   ar
    43    52    53    2
    44    52    54   am
    45     3     2    1
    46     3     4    2
    47     2     5    1
    48    60    54    1
    49    60    59    1
    50    54    55    1
    51     7     9   ar
    52     7     6   ar
    53     9    11   ar
    54    57    56    2
    55     5     6    1
    56     6     8   ar
    57    11    10   ar
    58    59    58    1
    59    56    55    1
    60    56    61   am
    61    55    58    1
    62     8    10   ar
    63    77    76    1
    64    61    62    1
    65    67    69   ar
    66    67    66   ar
    67    62    65    1
    68    62    63    1
    69    69    71   ar
    70    78    76    1
    71    65    66    1
    72    72    63   am
    73    72    73    1
    74    76    73    1
    75    83    84    1
    76    83    80    1
    77    66    68   ar
    78    63    64    2
    79    79    80    1
    80    79    74   am
    81    73    74    1
    82    71    70   ar
    83    80    81    1
    84    74    75    2
    85    68    70   ar
    86    81    82    2
