@<TRIPOS>MOLECULE
tmp/1qh6A00.pdb
 158 152 0 0 0
SMALL
GASTEIGER

@<TRIPOS>ATOM
      1  N          8.0190   19.0580   22.1100 N.3    16  GLU16      -0.1196
      2  CA         7.1580   20.0430   22.7620 C.3    16  GLU16       0.1783
      3  C          5.8770   19.3220   23.2010 C.2    16  GLU16       0.2306
      4  O          5.3010   18.4920   22.5100 O.2    16  GLU16      -0.2863
      5  CB         6.8140   21.2580   21.9170 C.2    16  GLU16       0.0071
      6  CG         5.9270   22.3010   22.5730 C.2    16  GLU16       0.0834
      7  CD         5.9540   23.6840   21.9600 C.2    16  GLU16       0.3877
      8  OE1        6.7390   23.9450   20.9990 O.co2  16  GLU16      -0.2406
      9  OE2        5.1730   24.5350   22.4470 O.co2  16  GLU16      -0.2406
     10  N          2.2580   20.7920   24.7120 N.3    18  TRP18      -0.1241
     11  CA         1.5140   22.0280   24.8280 C.3    18  TRP18       0.1605
     12  C          0.0360   21.7010   25.1010 C.2    18  TRP18       0.2264
     13  O         -0.5620   20.8970   24.3670 O.2    18  TRP18      -0.2867
     14  CB         1.5830   22.9490   23.5850 C.3    18  TRP18       0.0550
     15  CG         0.7920   24.1940   23.8910 C.ar   18  TRP18       0.0003
     16  CD1        1.2240   25.2570   24.6500 C.ar   18  TRP18       0.0946
     17  CD2       -0.5840   24.4450   23.5710 C.ar   18  TRP18       0.0152
     18  NE1        0.2080   26.1720   24.7530 N.ar   18  TRP18      -0.2442
     19  CE2       -0.9140   25.6890   24.1220 C.ar   18  TRP18       0.0810
     20  CE3       -1.5530   23.7340   22.8650 C.ar   18  TRP18       0.0012
     21  CZ2       -2.1880   26.2500   23.9760 C.ar   18  TRP18       0.0191
     22  CZ3       -2.8130   24.2850   22.7070 C.ar   18  TRP18       0.0001
     23  CH2       -3.1160   25.5380   23.2620 C.ar   18  TRP18       0.0015
     24  N         -7.5240   21.4270   24.6940 N.3    44  ASN44      -0.1240
     25  CA        -6.6330   21.2160   23.5320 C.3    44  ASN44       0.1653
     26  C         -5.2540   20.7640   23.9890 C.2    44  ASN44       0.2266
     27  O         -4.6650   21.3830   24.8910 O.2    44  ASN44      -0.2867
     28  CB        -6.5650   22.4670   22.6770 C.3    44  ASN44       0.1155
     29  CG        -6.0610   22.3830   21.2620 C.2    44  ASN44       0.2627
     30  OD1       -5.7500   23.4240   20.6690 O.2    44  ASN44      -0.2716
     31  ND2       -6.0060   21.2180   20.6310 N.am   44  ASN44      -0.0877
     32  N         -1.3230   19.1510   22.4040 N.3    46  LEU46      -0.1245
     33  CA        -0.4540   18.7380   21.3150 C.3    46  LEU46       0.1561
     34  C          0.8310   18.1280   21.8800 C.2    46  LEU46       0.2260
     35  O          1.4250   18.6910   22.7930 O.2    46  LEU46      -0.2867
     36  CB        -0.0710   19.8510   20.3460 C.3    46  LEU46       0.0270
     37  CG        -1.1030   20.3310   19.3180 C.3    46  LEU46       0.0019
     38  CD1       -2.2450   21.1690   19.8960 C.3    46  LEU46       0.0001
     39  CD2       -0.4290   21.2220   18.2710 C.3    46  LEU46       0.0001
     40  N          4.6750   16.6150   20.2910 N.3    48  ARG48      -0.1245
     41  CA         5.3700   16.5080   18.9980 C.3    48  ARG48       0.1563
     42  C          6.8770   16.3770   19.1040 C.2    48  ARG48       0.2260
     43  O          7.4220   16.8070   20.1160 O.2    48  ARG48      -0.2867
     44  CB         5.0070   17.7200   18.1360 C.3    48  ARG48       0.0307
     45  CG         5.6200   19.0380   18.5950 C.3    48  ARG48       0.0489
     46  CD         4.6960   20.2080   18.3960 C.3    48  ARG48       0.2205
     47  NE         5.1290   21.5700   18.2230 N.pl3  48  ARG48      -0.0865
     48  CZ         4.5200   22.5840   18.8470 C.cat  48  ARG48       0.5346
     49  NH1        3.5220   22.3550   19.6950 N.pl3  48  ARG48       0.1354
     50  NH2        4.9420   23.8200   18.6350 N.pl3  48  ARG48       0.1354
     51  N          3.0430   18.7690   11.5680 N.3    84  TYR84      -0.1241
     52  CA         2.6110   20.0900   11.9880 C.3    84  TYR84       0.1605
     53  C          3.8070   21.0070   12.1760 C.2    84  TYR84       0.2264
     54  O          4.8850   20.5430   12.5110 O.2    84  TYR84      -0.2867
     55  CB         1.8450   19.9580   13.2980 C.3    84  TYR84       0.0534
     56  CG         1.5340   21.1270   14.1880 C.ar   84  TYR84      -0.0201
     57  CD1        2.4900   21.6520   15.0490 C.ar   84  TYR84      -0.0009
     58  CD2        0.2760   21.6880   14.2680 C.ar   84  TYR84      -0.0009
     59  CE1        2.2110   22.7080   15.9070 C.ar   84  TYR84       0.0417
     60  CE2       -0.0440   22.7450   15.1080 C.ar   84  TYR84       0.0417
     61  CZ         0.9290   23.2400   15.9350 C.ar   84  TYR84       0.1957
     62  OH         0.6570   24.2700   16.7990 O.3    84  TYR84      -0.2866
     63  N          4.9580   25.6410   12.0140 N.3    86  TRP86      -0.1241
     64  CA         4.7080   27.0520   11.8340 C.3    86  TRP86       0.1605
     65  C          5.7430   27.7070   10.9100 C.2    86  TRP86       0.2264
     66  O          6.8910   27.2710   10.8110 O.2    86  TRP86      -0.2867
     67  CB         4.9010   27.7870   13.1850 C.3    86  TRP86       0.0550
     68  CG         3.9050   27.4220   14.2390 C.ar   86  TRP86       0.0003
     69  CD1        3.9380   26.2950   15.0200 C.ar   86  TRP86       0.0946
     70  CD2        2.7300   28.1230   14.6360 C.ar   86  TRP86       0.0152
     71  NE1        2.8600   26.2450   15.8620 N.ar   86  TRP86      -0.2442
     72  CE2        2.0980   27.3650   15.6480 C.ar   86  TRP86       0.0810
     73  CE3        2.1440   29.3330   14.2540 C.ar   86  TRP86       0.0012
     74  CZ2        0.9210   27.7660   16.2790 C.ar   86  TRP86       0.0191
     75  CZ3        0.9830   29.7210   14.8720 C.ar   86  TRP86       0.0001
     76  CH2        0.3690   28.9540   15.8890 C.ar   86  TRP86       0.0015
     77  N          0.2450   28.4850   10.9600 N.3    93  GLU93      -0.1245
     78  CA         0.2990   27.2000   11.6470 C.3    93  GLU93       0.1567
     79  C         -0.1260   26.1920   10.5610 C.2    93  GLU93       0.2260
     80  O         -1.0810   26.5480    9.8590 O.2    93  GLU93      -0.2867
     81  CB        -0.6590   27.1150   12.8040 C.3    93  GLU93       0.0388
     82  CG        -0.6690   25.8250   13.6030 C.3    93  GLU93       0.1160
     83  CD        -1.9130   25.6680   14.4560 C.2    93  GLU93       0.3649
     84  OE1       -3.0220   25.6410   13.8850 O.co2  93  GLU93      -0.2457
     85  OE2       -1.7720   25.5750   15.7120 O.co2  93  GLU93      -0.2457
     86  N         -0.7760   21.9890    8.9940 N.3    95  TYR95      -0.1241
     87  CA        -1.0490   20.5840    9.2480 C.3    95  TYR95       0.1605
     88  C         -1.0460   19.7400    7.9810 C.2    95  TYR95       0.2264
     89  O         -1.5900   20.1730    6.9700 O.2    95  TYR95      -0.2867
     90  CB        -2.4760   20.4080    9.7740 C.3    95  TYR95       0.0534
     91  CG        -2.8160   20.9450   11.1420 C.ar   95  TYR95      -0.0201
     92  CD1       -3.2390   22.2610   11.3450 C.ar   95  TYR95      -0.0009
     93  CD2       -2.7460   20.1090   12.2370 C.ar   95  TYR95      -0.0009
     94  CE1       -3.5750   22.7280   12.6180 C.ar   95  TYR95       0.0417
     95  CE2       -3.0710   20.5540   13.5100 C.ar   95  TYR95       0.0417
     96  CZ        -3.4800   21.8650   13.7030 C.ar   95  TYR95       0.1957
     97  OH        -3.8290   22.2740   14.9820 O.3    95  TYR95      -0.2866
     98  N         -7.5480   31.4690   12.6840 N.3   128  ARG128     -0.1245
     99  CA        -7.5960   31.4380   14.1430 C.3   128  ARG128      0.1563
    100  C         -7.5850   32.9120   14.5860 C.2   128  ARG128      0.2260
    101  O         -6.7890   33.7140   14.0900 O.2   128  ARG128     -0.2867
    102  CB        -6.4210   30.6680   14.7260 C.3   128  ARG128      0.0307
    103  CG        -6.5220   29.1630   14.4540 C.3   128  ARG128      0.0489
    104  CD        -7.4060   28.4820   15.4980 C.3   128  ARG128      0.2205
    105  NE        -6.6560   28.2590   16.7350 N.pl3 128  ARG128     -0.0865
    106  CZ        -7.1890   27.7490   17.8450 C.cat 128  ARG128      0.5346
    107  NH1       -8.4940   27.5140   17.8930 N.pl3 128  ARG128      0.1354
    108  NH2       -6.4500   27.5230   18.9220 N.pl3 128  ARG128      0.1354
    109  N         -3.9430   31.1740   21.0280 N.2   132  PRO132     -0.2571
    110  CA        -2.5610   30.9080   21.3970 C.3   132  PRO132      0.2026
    111  C         -1.7240   30.6180   20.1600 C.2   132  PRO132      0.2684
    112  O         -2.2220   30.0700   19.1750 O.2   132  PRO132     -0.2709
    113  CB        -2.6090   29.6980   22.2940 C.2   132  PRO132      0.0085
    114  CG        -4.0390   29.4140   22.5740 C.2   132  PRO132      0.0180
    115  CD        -4.8960   30.2400   21.6700 C.2   132  PRO132      0.0938
    116  N         -0.4660   31.0110   20.2200 N.am  133  SER133     -0.1931
    117  CA         0.4420   30.8070   19.1080 C.3   133  SER133      0.2055
    118  C          1.8550   30.7380   19.6780 C.2   133  SER133      0.2642
    119  O          2.0430   31.0620   20.8570 O.2   133  SER133     -0.2714
    120  CB         0.3710   31.7900   17.9670 C.3   133  SER133      0.2130
    121  OG         1.0810   32.9850   18.2790 O.3   133  SER133     -0.2179
    122  N          2.8080   30.3980   18.8250 N.am  134  ILE134     -0.1977
    123  CA         4.2210   30.4170   19.1750 C.3   134  ILE134      0.1596
    124  C          4.6930   31.8610   19.4460 C.2   134  ILE134      0.2287
    125  O          5.8010   32.1150   19.9170 O.2   134  ILE134     -0.2864
    126  CB         5.0540   29.8580   18.0080 C.3   134  ILE134      0.0276
    127  CG1        4.7530   30.5370   16.6740 C.3   134  ILE134      0.0022
    128  CG2        4.7790   28.3540   17.8850 C.3   134  ILE134      0.0022
    129  CD1        5.8290   30.3600   15.6190 C.3   134  ILE134      0.0001
    130  N         -4.1400   34.2560   13.0070 N.3   140  PHE140     -0.1241
    131  CA        -3.2580   33.7130   11.9700 C.3   140  PHE140      0.1605
    132  C         -4.0140   32.6570   11.1830 C.2   140  PHE140      0.2264
    133  O         -5.0190   32.1180   11.6500 O.2   140  PHE140     -0.2867
    134  CB        -2.0470   33.0300   12.6350 C.3   140  PHE140      0.0534
    135  CG        -2.3730   32.0760   13.7340 C.ar  140  PHE140     -0.0203
    136  CD1       -2.5530   32.5010   15.0440 C.ar  140  PHE140     -0.0042
    137  CD2       -2.5670   30.7290   13.4700 C.ar  140  PHE140     -0.0042
    138  CE1       -2.8640   31.6360   16.0620 C.ar  140  PHE140     -0.0003
    139  CE2       -2.8890   29.8590   14.4800 C.ar  140  PHE140     -0.0003
    140  CZ        -3.0540   30.2850   15.7970 C.ar  140  PHE140     -0.0000
    141  N         -4.3550   28.9520    9.3030 N.3   142  GLN142     -0.1245
    142  CA        -3.9800   27.5600    9.4570 C.3   142  GLN142      0.1566
    143  C         -4.0000   26.9690    8.0590 C.2   142  GLN142      0.2260
    144  O         -5.0280   27.1440    7.3790 O.2   142  GLN142     -0.2867
    145  CB        -4.9890   26.7850   10.3360 C.3   142  GLN142      0.0367
    146  CG        -5.0820   27.3220   11.7610 C.3   142  GLN142      0.0905
    147  CD        -6.2380   26.6360   12.4870 C.2   142  GLN142      0.2608
    148  OE1       -7.3480   26.7170   11.9890 O.2   142  GLN142     -0.2717
    149  NE2       -5.9300   26.0130   13.5970 N.am  142  GLN142     -0.0878
    150  N         -2.4160   15.5930   18.0560 N.3   183  GLU183     -0.1245
    151  CA        -3.2230   16.6520   18.6610 C.3   183  GLU183      0.1567
    152  C         -4.5360   16.0210   19.1530 C.2   183  GLU183      0.2260
    153  O         -5.1710   15.2960   18.4050 O.2   183  GLU183     -0.2867
    154  CB        -3.6010   17.7300   17.6660 C.3   183  GLU183      0.0388
    155  CG        -4.4490   18.8360   18.3180 C.3   183  GLU183      0.1160
    156  CD        -4.5940   20.0920   17.5060 C.2   183  GLU183      0.3649
    157  OE1       -3.7970   20.2720   16.5630 O.co2 183  GLU183     -0.2457
    158  OE2       -5.4710   20.9320   17.8090 O.co2 183  GLU183     -0.2457
@<TRIPOS>BOND
     1    89    88    2
     2   144   143    2
     3    88    87    1
     4   143   142    1
     5    86    87    1
     6    87    90    1
     7   141   142    1
     8   142   145    1
     9    90    91    1
    10    80    79    2
    11   145   146    1
    12    79    78    1
    13    66    65    2
    14    65    64    1
    15    77    78    1
    16    91    92   ar
    17    91    93   ar
    18   132   133    2
    19   132   131    1
    20    92    94   ar
    21    51    52    1
    22    78    81    1
    23   146   147    1
    24    64    63    1
    25    64    67    1
    26   131   134    1
    27   131   130    1
    28    52    53    1
    29    52    55    1
    30   148   147    2
    31    53    54    2
    32    93    95   ar
    33   147   149   am
    34    94    96   ar
    35   134   135    1
    36    98    99    1
    37    81    82    1
    38    67    68    1
    39    55    56    1
    40   137   135   ar
    41   137   139   ar
    42    95    96   ar
    43    82    83    1
    44    96    97    1
    45   135   136   ar
    46    84    83   ar
    47   101   100    2
    48    99   100    1
    49    99   102    1
    50    56    58   ar
    51    56    57   ar
    52    68    70   ar
    53    68    69   ar
    54    73    70   ar
    55    73    75   ar
    56    58    60   ar
    57   103   102    1
    58   103   104    1
    59    83    85   ar
    60   139   140   ar
    61    70    72   ar
    62    75    76   ar
    63    69    71   ar
    64   136   138   ar
    65    57    59   ar
    66    60    61   ar
    67   104   105    1
    68   129   127    1
    69    72    71   ar
    70    72    74   ar
    71   140   138   ar
    72    76    74   ar
    73    59    61   ar
    74    61    62    1
    75   157   156   ar
    76   127   126    1
    77   105   106    2
    78   156   158   ar
    79   156   155    1
    80   154   155    1
    81   154   151    1
    82   106   107    1
    83   106   108    1
    84   128   126    1
    85   120   121    1
    86   120   117    1
    87   126   123    1
    88   150   151    1
    89    44    45    1
    90    44    41    1
    91    47    46    1
    92    47    48    2
    93    39    37    1
    94    46    45    1
    95   153   152    2
    96    50    48    1
    97   151   152    1
    98   122   123    1
    99   122   118   am
   100    48    49    1
   101    41    42    1
   102    41    40    1
   103    42    43    2
   104   117   118    1
   105   117   116    1
   106   112   111    2
   107   123   124    1
   108    37    38    1
   109    37    36    1
   110   124   125    2
   111   118   119    2
   112   111   116   am
   113   111   110    1
   114    36    33    1
   115    31    29   am
   116    30    29    2
   117     8     7   ar
   118   109   110    1
   119   109   115    2
   120    29    28    1
   121    33    34    1
   122    33    32    1
   123   110   113    1
   124   115   114    1
   125    34    35    2
   126     5     6    2
   127     5     2    1
   128     7     9   ar
   129     7     6    1
   130     1     2    1
   131   113   114    2
   132     4     3    2
   133    28    25    1
   134    22    20   ar
   135    22    23   ar
   136     2     3    1
   137    20    17   ar
   138    23    21   ar
   139    25    26    1
   140    25    24    1
   141    17    15   ar
   142    17    19   ar
   143    14    15    1
   144    14    11    1
   145    15    16   ar
   146    21    19   ar
   147    26    27    2
   148    19    18   ar
   149    13    12    2
   150    16    18   ar
   151    10    11    1
   152    11    12    1
