@<TRIPOS>MOLECULE
tmp/1qh7B00.pdb
 127 123 0 0 0
SMALL
GASTEIGER

@<TRIPOS>ATOM
      1  N         35.9380   63.2940   22.5810 N.3    16  GLU16      -0.1245
      2  CA        34.8900   63.9770   23.3330 C.3    16  GLU16       0.1567
      3  C         33.8600   62.9520   23.7480 C.2    16  GLU16       0.2260
      4  O         33.5250   62.0660   22.9470 O.2    16  GLU16      -0.2867
      5  CB        34.1820   65.0630   22.5040 C.3    16  GLU16       0.0388
      6  CG        33.1110   65.8100   23.2520 C.3    16  GLU16       0.1160
      7  CD        32.6780   67.1510   22.7240 C.2    16  GLU16       0.3649
      8  OE1       33.2860   67.6780   21.7770 O.co2  16  GLU16      -0.2457
      9  OE2       31.7210   67.7410   23.2740 O.co2  16  GLU16      -0.2457
     10  N         29.9520   63.2700   25.2270 N.3    18  TRP18      -0.1241
     11  CA        28.8650   64.2160   25.4870 C.3    18  TRP18       0.1605
     12  C         27.5570   63.4600   25.6720 C.2    18  TRP18       0.2264
     13  O         27.2110   62.6320   24.8310 O.2    18  TRP18      -0.2867
     14  CB        28.6470   65.2460   24.3750 C.3    18  TRP18       0.0550
     15  CG        27.6380   66.2980   24.7460 C.ar   18  TRP18       0.0003
     16  CD1       27.9100   67.4700   25.4080 C.ar   18  TRP18       0.0946
     17  CD2       26.2270   66.2510   24.5420 C.ar   18  TRP18       0.0152
     18  NE1       26.7390   68.1640   25.5840 N.ar   18  TRP18      -0.2442
     19  CE2       25.7000   67.4440   25.0620 C.ar   18  TRP18       0.0810
     20  CE3       25.3800   65.3290   23.9350 C.ar   18  TRP18       0.0012
     21  CZ2       24.3360   67.7390   25.0040 C.ar   18  TRP18       0.0191
     22  CZ3       24.0130   65.6070   23.9280 C.ar   18  TRP18       0.0001
     23  CH2       23.5070   66.8230   24.4460 C.ar   18  TRP18       0.0015
     24  N         20.3970   61.0690   24.9010 N.3    44  ASN44      -0.1240
     25  CA        21.3100   61.2570   23.7620 C.3    44  ASN44       0.1653
     26  C         22.7600   61.2050   24.2450 C.2    44  ASN44       0.2266
     27  O         23.0790   61.9130   25.2180 O.2    44  ASN44      -0.2867
     28  CB        21.0400   62.5770   23.0520 C.3    44  ASN44       0.1155
     29  CG        21.7550   62.9290   21.7760 C.2    44  ASN44       0.2627
     30  OD1       21.9260   64.1450   21.4850 O.2    44  ASN44      -0.2716
     31  ND2       22.1500   61.9540   20.9590 N.am   44  ASN44      -0.0877
     32  N         27.0400   60.9060   22.6770 N.3    46  LEU46      -0.1245
     33  CA        27.9850   60.8540   21.5890 C.3    46  LEU46       0.1561
     34  C         29.3960   60.5400   22.1380 C.2    46  LEU46       0.2260
     35  O         29.8470   61.1160   23.1360 O.2    46  LEU46      -0.2867
     36  CB        28.0850   62.1630   20.8170 C.3    46  LEU46       0.0270
     37  CG        26.8790   62.5080   19.9380 C.3    46  LEU46       0.0019
     38  CD1       25.8660   63.2860   20.7890 C.3    46  LEU46       0.0001
     39  CD2       27.2400   63.3250   18.7050 C.3    46  LEU46       0.0001
     40  N         33.4160   60.1440   20.5220 N.3    48  ARG48      -0.1245
     41  CA        34.1420   60.3300   19.2580 C.3    48  ARG48       0.1563
     42  C         35.6300   60.5980   19.4340 C.2    48  ARG48       0.2260
     43  O         36.0440   61.1270   20.4780 O.2    48  ARG48      -0.2867
     44  CB        33.4860   61.4500   18.4760 C.3    48  ARG48       0.0307
     45  CG        33.5900   62.8490   19.0880 C.3    48  ARG48       0.0489
     46  CD        32.5100   63.7290   18.6010 C.3    48  ARG48       0.2205
     47  NE        32.4280   65.1320   18.8080 N.pl3  48  ARG48      -0.0865
     48  CZ        31.5030   65.8580   19.4020 C.cat  48  ARG48       0.5346
     49  NH1       30.5480   65.3430   20.1410 N.pl3  48  ARG48       0.1354
     50  NH2       31.5640   67.1600   19.2880 N.pl3  48  ARG48       0.1354
     51  N         31.2100   62.4510   11.9150 N.3    84  TYR84      -0.1241
     52  CA        30.4890   63.5530   12.4680 C.3    84  TYR84       0.1605
     53  C         31.3490   64.7680   12.7300 C.2    84  TYR84       0.2264
     54  O         32.5420   64.6940   12.9830 O.2    84  TYR84      -0.2867
     55  CB        29.9290   63.0530   13.8310 C.3    84  TYR84       0.0534
     56  CG        29.2190   64.0740   14.7000 C.ar   84  TYR84      -0.0201
     57  CD1       27.8590   64.2660   14.6160 C.ar   84  TYR84      -0.0009
     58  CD2       29.9480   64.7690   15.6880 C.ar   84  TYR84      -0.0009
     59  CE1       27.2450   65.1650   15.4560 C.ar   84  TYR84       0.0417
     60  CE2       29.2890   65.6740   16.5310 C.ar   84  TYR84       0.0417
     61  CZ        27.9320   65.8620   16.4060 C.ar   84  TYR84       0.1957
     62  OH        27.2220   66.7550   17.1950 O.3    84  TYR84      -0.2866
     63  N         31.1950   69.4920   12.9390 N.3    86  TRP86      -0.1241
     64  CA        30.5400   70.7680   12.8040 C.3    86  TRP86       0.1605
     65  C         31.3090   71.7500   11.9310 C.2    86  TRP86       0.2264
     66  O         32.5190   71.6830   11.8490 O.2    86  TRP86      -0.2867
     67  CB        30.3700   71.4980   14.1800 C.3    86  TRP86       0.0550
     68  CG        29.4880   70.7650   15.1490 C.ar   86  TRP86       0.0003
     69  CD1       29.7770   69.6220   15.8710 C.ar   86  TRP86       0.0946
     70  CD2       28.1600   71.1260   15.5200 C.ar   86  TRP86       0.0152
     71  NE1       28.6660   69.2210   16.6190 N.ar   86  TRP86      -0.2442
     72  CE2       27.6950   70.1680   16.4500 C.ar   86  TRP86       0.0810
     73  CE3       27.3070   72.1840   15.2080 C.ar   86  TRP86       0.0012
     74  CZ2       26.4390   70.2370   17.0350 C.ar   86  TRP86       0.0191
     75  CZ3       26.0700   72.2400   15.7850 C.ar   86  TRP86       0.0001
     76  CH2       25.6340   71.2920   16.7080 C.ar   86  TRP86       0.0015
     77  N         25.7590   70.9850   11.9250 N.3    93  GLU93      -0.1245
     78  CA        26.1100   69.6940   12.4790 C.3    93  GLU93       0.1567
     79  C         26.0060   68.7070   11.3140 C.2    93  GLU93       0.2260
     80  O         24.9660   68.6830   10.6440 O.2    93  GLU93      -0.2867
     81  CB        25.1500   69.3390   13.6290 C.3    93  GLU93       0.0388
     82  CG        25.4650   68.0220   14.3250 C.3    93  GLU93       0.1160
     83  CD        24.4450   67.6640   15.4040 C.2    93  GLU93       0.3649
     84  OE1       23.2310   67.7860   15.1220 O.co2  93  GLU93      -0.2457
     85  OE2       24.8720   67.2280   16.5060 O.co2  93  GLU93      -0.2457
     86  N         20.5810   72.3040   21.9610 N.3   132  PRO132     -0.2102
     87  CA        21.9530   72.2520   22.4650 C.3   132  PRO132      0.1504
     88  C         22.8770   72.0590   21.2820 C.2   132  PRO132      0.2576
     89  O         22.5570   71.3160   20.3600 O.2   132  PRO132     -0.2718
     90  CB        21.9420   71.0550   23.4010 C.3   132  PRO132      0.0282
     91  CG        20.5330   71.0430   23.8960 C.3   132  PRO132      0.0208
     92  CD        19.7200   71.2990   22.6370 C.3   132  PRO132      0.0893
     93  N         23.9750   72.7750   21.2790 N.am  133  SER133     -0.1938
     94  CA        24.9490   72.7520   20.1970 C.3   133  SER133      0.2055
     95  C         26.3510   72.9550   20.7300 C.2   133  SER133      0.2642
     96  O         26.5280   73.1710   21.9300 O.2   133  SER133     -0.2714
     97  CB        24.5950   73.8780   19.2130 C.3   133  SER133      0.2130
     98  OG        25.1860   75.1160   19.5780 O.3   133  SER133     -0.2179
     99  N         27.3370   73.0700   19.8430 N.am  134  ILE134     -0.1977
    100  CA        28.6950   73.3980   20.2360 C.3   134  ILE134      0.1596
    101  C         28.8340   74.8690   20.6640 C.2   134  ILE134      0.2287
    102  O         29.8760   75.2740   21.2170 O.2   134  ILE134     -0.2864
    103  CB        29.7040   73.1100   19.0980 C.3   134  ILE134      0.0276
    104  CG1       29.2450   73.7370   17.7860 C.3   134  ILE134      0.0022
    105  CG2       29.8470   71.5960   18.9190 C.3   134  ILE134      0.0022
    106  CD1       30.3880   73.9810   16.8230 C.3   134  ILE134      0.0001
    107  N         35.0380   73.0930   12.3970 N.3   176  TYR176     -0.1241
    108  CA        35.1820   73.0100   13.8510 C.3   176  TYR176      0.1605
    109  C         35.6650   71.6000   14.2150 C.2   176  TYR176      0.2264
    110  O         36.4130   71.4330   15.1660 O.2   176  TYR176     -0.2867
    111  CB        33.8530   73.3230   14.5050 C.3   176  TYR176      0.0534
    112  CG        33.7630   73.0510   15.9770 C.ar  176  TYR176     -0.0201
    113  CD1       33.4330   71.8010   16.4590 C.ar  176  TYR176     -0.0009
    114  CD2       34.0010   74.0840   16.8930 C.ar  176  TYR176     -0.0009
    115  CE1       33.3840   71.5270   17.8190 C.ar  176  TYR176      0.0417
    116  CE2       33.9160   73.8050   18.2610 C.ar  176  TYR176      0.0417
    117  CZ        33.6290   72.5340   18.7040 C.ar  176  TYR176      0.1957
    118  OH        33.5070   72.3280   20.0870 O.3   176  TYR176     -0.2866
    119  N         26.8780   57.5660   18.1200 N.3   183  GLU183     -0.1245
    120  CA        25.8090   58.3410   18.7330 C.3   183  GLU183      0.1567
    121  C         24.6680   57.4180   19.1320 C.2   183  GLU183      0.2260
    122  O         24.2330   56.5710   18.3470 O.2   183  GLU183     -0.2867
    123  CB        25.2580   59.4190   17.7780 C.3   183  GLU183      0.0388
    124  CG        24.1110   60.2160   18.3770 C.3   183  GLU183      0.1160
    125  CD        23.8420   61.5320   17.7440 C.2   183  GLU183      0.3649
    126  OE1       24.1860   61.7650   16.5770 O.co2 183  GLU183     -0.2457
    127  OE2       23.2750   62.4540   18.3750 O.co2 183  GLU183     -0.2457
@<TRIPOS>BOND
     1    80    79    2
     2    79    78    1
     3    66    65    2
     4    51    52    1
     5    77    78    1
     6    65    64    1
     7   107   108    1
     8    52    53    1
     9    52    55    1
    10    78    81    1
    11    53    54    2
    12    64    63    1
    13    64    67    1
    14    81    82    1
    15    55    56    1
    16   108   109    1
    17   108   111    1
    18    67    68    1
    19   109   110    2
    20    82    83    1
    21   111   112    1
    22    57    56   ar
    23    57    59   ar
    24    56    58   ar
    25    84    83   ar
    26    68    70   ar
    27    68    69   ar
    28    73    70   ar
    29    73    75   ar
    30    83    85   ar
    31    59    61   ar
    32    70    72   ar
    33    58    60   ar
    34    75    76   ar
    35    69    71   ar
    36   112   113   ar
    37   112   114   ar
    38    61    60   ar
    39    61    62    1
    40    72    71   ar
    41    72    74   ar
    42   113   115   ar
    43   126   125   ar
    44    76    74   ar
    45   106   104    1
    46   114   116   ar
    47   125   127   ar
    48   125   124    1
    49   123   124    1
    50   123   120    1
    51   104   103    1
    52   115   117   ar
    53   119   120    1
    54   116   117   ar
    55   122   121    2
    56    44    45    1
    57    44    41    1
    58    46    47    1
    59    46    45    1
    60   117   118    1
    61    39    37    1
    62   120   121    1
    63    47    48    2
    64   105   103    1
    65   103   100    1
    66    97    98    1
    67    97    94    1
    68    41    42    1
    69    41    40    1
    70    50    48    1
    71    48    49    1
    72    42    43    2
    73    99   100    1
    74    99    95   am
    75    37    38    1
    76    37    36    1
    77    94    95    1
    78    94    93    1
    79   100   101    1
    80    89    88    2
    81   101   102    2
    82    95    96    2
    83    36    33    1
    84    31    29   am
    85    93    88   am
    86    88    87    1
    87    30    29    2
    88    33    34    1
    89    33    32    1
    90    29    28    1
    91     8     7   ar
    92    86    87    1
    93    86    92    1
    94    34    35    2
    95    87    90    1
    96     5     6    1
    97     5     2    1
    98     1     2    1
    99    92    91    1
   100     7     6    1
   101     7     9   ar
   102     4     3    2
   103    28    25    1
   104     2     3    1
   105    90    91    1
   106    25    26    1
   107    25    24    1
   108    22    20   ar
   109    22    23   ar
   110    20    17   ar
   111    26    27    2
   112    14    15    1
   113    14    11    1
   114    23    21   ar
   115    17    15   ar
   116    17    19   ar
   117    15    16   ar
   118    13    12    2
   119    21    19   ar
   120    19    18   ar
   121    10    11    1
   122    16    18   ar
   123    11    12    1
