@<TRIPOS>MOLECULE
tmp/1qhaA01.pdb
 123 111 0 0 0
SMALL
GASTEIGER

@<TRIPOS>ATOM
      1  N         18.8750   22.5860    0.6990 N.3    73  ASP73      -0.1239
      2  CA        19.8620   21.9160   -0.1580 C.3    73  ASP73       0.1674
      3  C         21.2790   22.3930    0.1330 C.2    73  ASP73       0.2266
      4  O         21.6320   23.4370   -0.4130 O.2    73  ASP73      -0.2867
      5  CB        19.4980   22.0990   -1.6270 C.3    73  ASP73       0.1410
      6  CG        20.1940   21.1770   -2.5920 C.2    73  ASP73       0.3668
      7  OD1       21.0990   20.3950   -2.2380 O.co2  73  ASP73      -0.2456
      8  OD2       19.8630   21.2160   -3.7950 O.co2  73  ASP73      -0.2456
      9  N         26.3970   21.3130   -2.2090 N.3    76  GLY76      -0.1210
     10  CA        26.7630   21.3580   -3.6070 C.3    76  GLY76       0.1956
     11  C         27.3090   22.7570   -3.9070 C.2    76  GLY76       0.2613
     12  O         27.7120   23.4850   -2.9810 O.2    76  GLY76      -0.2717
     13  N         27.2860   23.1650   -5.1740 N.am   77  SER77      -0.1938
     14  CA        27.7670   24.4870   -5.5490 C.3    77  SER77       0.2055
     15  C         26.8570   25.6210   -5.1000 C.2    77  SER77       0.2643
     16  O         27.3580   26.7450   -4.9610 O.2    77  SER77      -0.2714
     17  CB        27.9490   24.6500   -7.0650 C.3    77  SER77       0.2130
     18  OG        26.7710   24.0970   -7.6250 O.3    77  SER77      -0.2179
     19  N         25.5650   25.3350   -4.9200 N.am   78  SER78      -0.1949
     20  CA        24.6820   26.3850   -4.4060 C.3    78  SER78       0.1924
     21  C         23.8300   25.9120   -3.2440 C.2    78  SER78       0.2314
     22  O         23.2150   24.8570   -3.2590 O.2    78  SER78      -0.2863
     23  CB        23.7520   26.8420   -5.5360 C.3    78  SER78       0.2116
     24  OG        24.5990   27.1930   -6.6500 O.3    78  SER78      -0.2180
     25  N         20.5700   26.0520   -1.8440 N.3    80  ARG80      -0.1245
     26  CA        19.2590   26.4330   -2.3390 C.3    80  ARG80       0.1563
     27  C         18.1690   26.1930   -1.3140 C.2    80  ARG80       0.2260
     28  O         18.3530   25.3390   -0.4330 O.2    80  ARG80      -0.2867
     29  CB        18.9830   25.7530   -3.6650 C.3    80  ARG80       0.0307
     30  CG        17.5100   25.6570   -4.0700 C.3    80  ARG80       0.0489
     31  CD        17.4460   25.7000   -5.6070 C.3    80  ARG80       0.2205
     32  NE        18.7900   25.4520   -6.1180 N.pl3  80  ARG80      -0.0865
     33  CZ        19.3200   26.0660   -7.1670 C.cat  80  ARG80       0.5346
     34  NH1       18.6300   26.9860   -7.8360 N.pl3  80  ARG80       0.1354
     35  NH2       20.5670   25.7370   -7.4950 N.pl3  80  ARG80       0.1354
     36  N         18.3580   18.0560    2.3070 N.3   142  THR142     -0.1218
     37  CA        19.4030   17.4540    1.4940 C.3   142  THR142      0.1862
     38  C         20.6970   18.1880    1.9420 C.2   142  THR142      0.2287
     39  O         20.8620   19.4080    1.9730 O.2   142  THR142     -0.2866
     40  CB        19.1620   17.7010    0.0100 C.3   142  THR142      0.1770
     41  OG1       17.8000   17.3900   -0.2600 O.3   142  THR142     -0.2211
     42  CG2       20.1220   17.0430   -0.9210 C.3   142  THR142      0.0375
     43  N         24.5640   17.0520    1.4520 N.3   144  SER144     -0.1217
     44  CA        25.3960   16.1700    0.6390 C.3   144  SER144      0.1889
     45  C         26.7150   15.7240    1.2370 C.2   144  SER144      0.2288
     46  O         27.7760   16.1370    0.7440 O.2   144  SER144     -0.2866
     47  CB        25.6530   16.9350   -0.6970 C.3   144  SER144      0.2089
     48  OG        25.9370   18.3110   -0.3710 O.3   144  SER144     -0.2183
     49  N         22.2090   13.9750   -1.6650 N.3   198  ASP198     -0.1239
     50  CA        21.7520   14.5670   -2.9530 C.3   198  ASP198      0.1674
     51  C         21.6870   13.4200   -3.9370 C.2   198  ASP198      0.2266
     52  O         20.8500   13.4010   -4.8840 O.2   198  ASP198     -0.2867
     53  CB        22.6920   15.7250   -3.2600 C.3   198  ASP198      0.1410
     54  CG        24.1460   15.2460   -3.3980 C.2   198  ASP198      0.3668
     55  OD1       24.4190   14.1080   -2.9640 O.co2 198  ASP198     -0.2456
     56  OD2       25.0140   15.9350   -3.9510 O.co2 198  ASP198     -0.2456
     57  N         18.1870   12.8320   -5.8630 N.3   202  THR202     -0.1218
     58  CA        18.2370   12.6920   -7.3150 C.3   202  THR202      0.1862
     59  C         17.4890   11.4620   -7.7840 C.2   202  THR202      0.2287
     60  O         16.6430   11.5290   -8.7020 O.2   202  THR202     -0.2866
     61  CB        19.6900   12.6720   -7.8240 C.3   202  THR202      0.1770
     62  OG1       20.2740   13.9510   -7.5650 O.3   202  THR202     -0.2211
     63  CG2       19.7380   12.4580   -9.3220 C.3   202  THR202      0.0375
     64  N         25.7390   11.2520   -8.9410 N.3   218  ILE218     -0.1245
     65  CA        26.1310   12.6540   -8.8600 C.3   218  ILE218      0.1561
     66  C         27.5770   12.7650   -9.3430 C.2   218  ILE218      0.2260
     67  O         28.4380   11.9500   -9.0130 O.2   218  ILE218     -0.2867
     68  CB        26.1140   13.3300   -7.4680 C.3   218  ILE218      0.0252
     69  CG1       24.7090   13.3840   -6.8830 C.3   218  ILE218      0.0019
     70  CG2       26.7480   14.7220   -7.5530 C.3   218  ILE218      0.0019
     71  CD1       23.7230   14.4230   -7.3620 C.3   218  ILE218      0.0001
     72  N         29.3120   16.1560   -9.8770 N.3   220  GLY220     -0.1210
     73  CA        29.4250   17.5990   -9.7740 C.3   220  GLY220      0.1956
     74  C         30.6560   18.0830   -9.0090 C.2   220  GLY220      0.2613
     75  O         31.7980   17.7120   -9.3310 O.2   220  GLY220     -0.2717
     76  N         30.4760   18.9670   -8.0100 N.am  221  THR221     -0.1938
     77  CA        31.5950   19.3300   -7.1530 C.3   221  THR221      0.2028
     78  C         32.2180   17.9960   -6.6680 C.2   221  THR221      0.2642
     79  O         33.4370   17.8140   -6.7380 O.2   221  THR221     -0.2714
     80  CB        31.2270   20.1130   -5.9140 C.3   221  THR221      0.1808
     81  OG1       30.3690   21.1850   -6.2060 O.3   221  THR221     -0.2208
     82  CG2       32.4620   20.5060   -5.1020 C.3   221  THR221      0.0379
     83  N         31.3570   17.1360   -6.1440 N.am  222  GLY222     -0.1954
     84  CA        31.8010   15.7790   -5.7890 C.3   222  GLY222      0.1869
     85  C         31.0520   14.7510   -6.6670 C.2   222  GLY222      0.2309
     86  O         30.3230   15.0660   -7.5790 O.2   222  GLY222     -0.2863
     87  N         22.6890   13.9580  -11.6970 N.3   402  ASP402     -0.1225
     88  CA        22.8850   15.4040  -11.5260 C.3   402  ASP402      0.1805
     89  C         24.3270   15.7920  -11.2960 C.2   402  ASP402      0.2598
     90  O         25.2070   14.9210  -11.3300 O.2   402  ASP402     -0.2718
     91  CB        21.8370   15.9800  -10.6170 C.3   402  ASP402      0.1424
     92  CG        21.6010   17.4580  -10.7720 C.2   402  ASP402      0.3668
     93  OD1       22.3570   18.1040  -11.5190 O.co2 402  ASP402     -0.2456
     94  OD2       20.6760   17.9890  -10.1120 O.co2 402  ASP402     -0.2456
     95  N         24.6700   17.0690  -11.2670 N.am  403  GLY403     -0.1942
     96  CA        26.0430   17.5390  -11.1600 C.3   403  GLY403      0.2014
     97  C         26.5190   18.4390  -12.2840 C.2   403  GLY403      0.2639
     98  O         26.3460   18.1110  -13.4740 O.2   403  GLY403     -0.2714
     99  N         27.0710   19.6020  -11.9640 N.am  404  SER404     -0.1949
    100  CA        27.5640   20.5550  -12.9320 C.3   404  SER404      0.1924
    101  C         28.4780   20.0230  -14.0030 C.2   404  SER404      0.2314
    102  O         28.2510   20.4110  -15.1430 O.2   404  SER404     -0.2863
    103  CB        28.2790   21.7520  -12.2770 C.3   404  SER404      0.2116
    104  OG        27.3690   22.3480  -11.3540 O.3   404  SER404     -0.2180
    105  N         26.5520   18.0130  -16.6540 N.3   407  LYS407     -0.1245
    106  CA        25.6530   18.8620  -17.3720 C.3   407  LYS407      0.1561
    107  C         26.3530   19.7620  -18.3850 C.2   407  LYS407      0.2260
    108  O         25.8490   20.0050  -19.5010 O.2   407  LYS407     -0.2867
    109  CB        24.8380   19.7580  -16.4470 C.3   407  LYS407      0.0271
    110  CG        23.7580   19.0330  -15.6790 C.3   407  LYS407      0.0035
    111  CD        22.5450   19.9480  -15.4840 C.3   407  LYS407      0.0206
    112  CE        22.5330   20.5020  -14.0710 C.3   407  LYS407      0.1093
    113  NZ        21.7400   21.7640  -14.0400 N.3   407  LYS407     -0.1314
    114  N         17.1920   19.8730  -10.0920 N.3   437  GLY437     -0.1210
    115  CA        17.6430   19.7340   -8.7170 C.3   437  GLY437      0.1956
    116  C         17.0890   18.4960   -8.0390 C.2   437  GLY437      0.2612
    117  O         16.3760   17.7330   -8.6940 O.2   437  GLY437     -0.2717
    118  N         17.4530   18.3570   -6.7670 N.am  438  SER438     -0.1952
    119  CA        17.0770   17.1700   -6.0140 C.3   438  SER438      0.1924
    120  C         15.8730   17.4620   -5.1260 C.2   438  SER438      0.2314
    121  O         15.4770   16.5500   -4.3990 O.2   438  SER438     -0.2863
    122  CB        18.2510   16.7780   -5.0770 C.3   438  SER438      0.2116
    123  OG        18.4670   17.8510   -4.1660 O.3   438  SER438     -0.2180
@<TRIPOS>BOND
     1   108   107    2
     2   107   106    1
     3   106   105    1
     4   106   109    1
     5   109   110    1
     6   110   111    1
     7   111   112    1
     8   102   101    2
     9   112   113    1
    10   101   100    1
    11    98    97    2
    12   100   103    1
    13   100    99    1
    14    97    99   am
    15    97    96    1
    16   103   104    1
    17    87    88    1
    18    88    89    1
    19    88    91    1
    20    93    92   ar
    21    90    89    2
    22    89    95   am
    23    95    96    1
    24    92    91    1
    25    92    94   ar
    26   114   115    1
    27    72    73    1
    28    73    74    1
    29    66    67    2
    30    66    65    1
    31    75    74    2
    32    63    61    1
    33    74    76   am
    34    64    65    1
    35    65    68    1
    36   115   116    1
    37    60    59    2
    38   117   116    2
    39   116   118   am
    40    76    77    1
    41    34    33    1
    42    61    62    1
    43    61    58    1
    44    59    58    1
    45    18    17    1
    46    86    85    2
    47    70    68    1
    48    35    33    1
    49    68    69    1
    50    71    69    1
    51    58    57    1
    52    33    32    2
    53    77    78    1
    54    77    80    1
    55    17    14    1
    56   118   119    1
    57    79    78    2
    58    78    83   am
    59    85    84    1
    60    24    23    1
    61    81    80    1
    62    83    84    1
    63    32    31    1
    64   119   120    1
    65   119   122    1
    66    80    82    1
    67    31    30    1
    68    14    13    1
    69    14    15    1
    70    23    20    1
    71    13    11   am
    72   120   121    2
    73    15    16    2
    74    15    19   am
    75   122   123    1
    76    19    20    1
    77    52    51    2
    78    20    21    1
    79    30    29    1
    80    56    54   ar
    81    51    50    1
    82    11    10    1
    83    11    12    2
    84     8     6   ar
    85    29    26    1
    86    10     9    1
    87    54    53    1
    88    54    55   ar
    89    53    50    1
    90    22    21    2
    91    50    49    1
    92     6     7   ar
    93     6     5    1
    94    26    25    1
    95    26    27    1
    96     5     2    1
    97    27    28    2
    98    42    40    1
    99    47    48    1
   100    47    44    1
   101     4     3    2
   102    41    40    1
   103     2     3    1
   104     2     1    1
   105    40    37    1
   106    44    45    1
   107    44    43    1
   108    46    45    2
   109    37    38    1
   110    37    36    1
   111    38    39    2
