@<TRIPOS>MOLECULE
tmp/1qhaA03.pdb
 119 107 0 0 0
SMALL
GASTEIGER

@<TRIPOS>ATOM
      1  N         -3.3620  -27.7810   47.1360 N.3   521  ASP521     -0.1239
      2  CA        -3.0290  -26.4680   46.5700 C.3   521  ASP521      0.1674
      3  C         -4.0120  -26.1200   45.4530 C.2   521  ASP521      0.2266
      4  O         -3.7980  -26.5380   44.3030 O.2   521  ASP521     -0.2867
      5  CB        -1.6490  -26.5490   45.9120 C.3   521  ASP521      0.1410
      6  CG        -0.9700  -25.2030   45.8150 C.2   521  ASP521      0.3668
      7  OD1       -1.5770  -24.1510   46.1220 O.co2 521  ASP521     -0.2456
      8  OD2        0.2250  -25.2240   45.4300 O.co2 521  ASP521     -0.2456
      9  N         -4.0390  -21.4940   41.8880 N.3   524  GLY524     -0.1210
     10  CA        -3.0110  -21.1730   40.9330 C.3   524  GLY524      0.1956
     11  C         -3.0700  -22.0780   39.7060 C.2   524  GLY524      0.2612
     12  O         -4.0390  -22.7680   39.4660 O.2   524  GLY524     -0.2717
     13  N         -1.9820  -22.1080   38.9530 N.am  525  THR525     -0.1952
     14  CA        -1.8640  -22.8880   37.7400 C.3   525  THR525      0.1897
     15  C         -2.0510  -24.3580   37.9150 C.2   525  THR525      0.2313
     16  O         -2.7890  -24.9270   37.1120 O.2   525  THR525     -0.2863
     17  CB        -0.6490  -22.5410   36.8760 C.3   525  THR525      0.1794
     18  OG1        0.5760  -23.0570   37.3870 O.3   525  THR525     -0.2208
     19  CG2       -0.4790  -21.0400   36.7240 C.3   525  THR525      0.0378
     20  N         -2.6990  -29.1920   43.1450 N.3   528  ARG528     -0.1197
     21  CA        -1.8840  -30.2640   43.6370 C.3   528  ARG528      0.1779
     22  C         -2.1960  -30.8420   45.0010 C.2   528  ARG528      0.2305
     23  O         -2.7580  -30.1560   45.8860 O.2   528  ARG528     -0.2863
     24  CB        -0.4400  -30.1560   43.2490 C.2   528  ARG528     -0.0007
     25  CG         0.4680  -29.2820   44.0120 C.2   528  ARG528      0.0176
     26  CD         1.8680  -29.1480   43.4920 C.3   528  ARG528      0.2464
     27  NE         2.0220  -28.7760   42.1030 N.pl3 528  ARG528     -0.0815
     28  CZ         3.1080  -28.0690   41.7350 C.cat 528  ARG528      0.5349
     29  NH1        4.0130  -27.8410   42.6740 N.pl3 528  ARG528      0.1354
     30  NH2        3.2870  -27.8010   40.4600 N.pl3 528  ARG528      0.1354
     31  N         -4.6160  -25.0380   51.1510 N.3   590  THR590     -0.1218
     32  CA        -4.2640  -23.7430   50.5680 C.3   590  THR590      0.1862
     33  C         -5.2540  -23.4110   49.4350 C.2   590  THR590      0.2287
     34  O         -5.2290  -24.0790   48.3990 O.2   590  THR590     -0.2866
     35  CB        -2.8720  -23.7640   49.9340 C.3   590  THR590      0.1770
     36  OG1       -1.8680  -23.8690   50.9390 O.3   590  THR590     -0.2211
     37  CG2       -2.6340  -22.4690   49.1670 C.3   590  THR590      0.0375
     38  N         -6.6650  -20.4500   47.2060 N.3   592  SER592     -0.1217
     39  CA        -6.2500  -19.1270   46.7480 C.3   592  SER592      0.1889
     40  C         -7.3330  -18.1340   46.3140 C.2   592  SER592      0.2288
     41  O         -7.3560  -17.6620   45.1770 O.2   592  SER592     -0.2866
     42  CB        -5.3600  -19.4590   45.4980 C.3   592  SER592      0.2089
     43  OG        -4.0740  -19.2320   46.0550 O.3   592  SER592     -0.2183
     44  N         -2.7670  -18.6850   49.5170 N.3   646  ASP646     -0.1239
     45  CA        -1.4770  -18.9990   48.9210 C.3   646  ASP646      0.1674
     46  C         -0.3950  -18.0510   49.4290 C.2   646  ASP646      0.2266
     47  O          0.8110  -18.2560   49.4190 O.2   646  ASP646     -0.2867
     48  CB        -1.4630  -19.0620   47.3940 C.3   646  ASP646      0.1410
     49  CG        -2.0080  -17.9400   46.5540 C.2   646  ASP646      0.3668
     50  OD1       -2.7080  -17.0750   47.1310 O.co2 646  ASP646     -0.2456
     51  OD2       -1.8980  -17.9570   45.2870 O.co2 646  ASP646     -0.2456
     52  N          3.0070  -18.9640   51.2620 N.3   650  THR650     -0.1218
     53  CA         4.3070  -18.5730   50.7210 C.3   650  THR650      0.1862
     54  C          5.1720  -17.8480   51.7390 C.2   650  THR650      0.2287
     55  O          6.3870  -18.0660   51.8210 O.2   650  THR650     -0.2866
     56  CB         4.0920  -17.6700   49.4820 C.3   650  THR650      0.1770
     57  OG1        3.3330  -18.4460   48.5330 O.3   650  THR650     -0.2211
     58  CG2        5.3810  -17.1770   48.8590 C.3   650  THR650      0.0375
     59  N          2.1100  -12.6750   46.0670 N.3   666  ILE666     -0.1245
     60  CA         1.8610  -13.4490   44.8710 C.3   666  ILE666      0.1561
     61  C          1.7100  -12.6270   43.6040 C.2   666  ILE666      0.2260
     62  O          0.8650  -11.7250   43.4820 O.2   666  ILE666     -0.2867
     63  CB         0.6350  -14.3600   45.0690 C.3   666  ILE666      0.0252
     64  CG1        0.7960  -15.2510   46.3010 C.3   666  ILE666      0.0019
     65  CG2        0.4060  -15.1450   43.7820 C.3   666  ILE666      0.0019
     66  CD1        1.7540  -16.4200   46.1040 C.3   666  ILE666      0.0001
     67  N          1.1640  -14.1150   39.8890 N.3   668  GLY668     -0.1210
     68  CA         1.0800  -15.2380   38.9620 C.3   668  GLY668      0.1956
     69  C         -0.2300  -15.0790   38.1710 C.2   668  GLY668      0.2613
     70  O         -0.4580  -14.0830   37.4640 O.2   668  GLY668     -0.2717
     71  N         -1.0430  -16.1140   38.2090 N.am  669  THR669     -0.1938
     72  CA        -2.3580  -15.9700   37.6040 C.3   669  THR669      0.2028
     73  C         -3.1170  -14.8080   38.2200 C.2   669  THR669      0.2642
     74  O         -3.5980  -13.9890   37.4650 O.2   669  THR669     -0.2714
     75  CB        -3.2000  -17.2370   37.7590 C.3   669  THR669      0.1808
     76  OG1       -2.5410  -18.3350   37.1180 O.3   669  THR669     -0.2208
     77  CG2       -4.5780  -17.0360   37.1460 C.3   669  THR669      0.0379
     78  N         -3.1240  -14.6640   39.5520 N.am  670  GLY670     -0.1954
     79  CA        -3.6690  -13.4490   40.1720 C.3   670  GLY670      0.1869
     80  C         -2.5770  -12.7520   40.9800 C.2   670  GLY670      0.2309
     81  O         -1.3880  -13.0060   40.7630 O.2   670  GLY670     -0.2863
     82  N          5.9510  -15.7310   45.1160 N.3   850  ASP850     -0.1225
     83  CA         5.8280  -16.8240   44.1620 C.3   850  ASP850      0.1805
     84  C          5.0260  -16.3750   42.9520 C.2   850  ASP850      0.2598
     85  O          4.4220  -15.2910   43.0090 O.2   850  ASP850     -0.2718
     86  CB         5.0830  -18.0100   44.8020 C.3   850  ASP850      0.1424
     87  CG         5.5250  -19.2720   44.0760 C.2   850  ASP850      0.3668
     88  OD1        5.9260  -19.1440   42.9060 O.co2 850  ASP850     -0.2456
     89  OD2        5.4690  -20.3660   44.6880 O.co2 850  ASP850     -0.2456
     90  N          4.8690  -17.1730   41.9220 N.am  851  GLY851     -0.1942
     91  CA         4.0120  -16.7870   40.8050 C.3   851  GLY851      0.2014
     92  C          4.7470  -16.9720   39.4920 C.2   851  GLY851      0.2639
     93  O          5.9270  -16.6480   39.3310 O.2   851  GLY851     -0.2714
     94  N          4.0610  -17.5230   38.5180 N.am  852  THR852     -0.1950
     95  CA         4.6900  -17.7930   37.2370 C.3   852  THR852      0.1897
     96  C          5.1710  -16.5310   36.5530 C.2   852  THR852      0.2313
     97  O          6.2330  -16.5480   35.9270 O.2   852  THR852     -0.2863
     98  CB         3.7590  -18.6030   36.3010 C.3   852  THR852      0.1794
     99  OG1        3.4230  -19.7900   37.0570 O.3   852  THR852     -0.2208
    100  CG2        4.6550  -19.0370   35.1440 C.3   852  THR852      0.0378
    101  N          8.1690  -15.3640   38.3060 N.3   855  LYS855     -0.1245
    102  CA         9.2690  -16.2150   37.9290 C.3   855  LYS855      0.1561
    103  C          9.7420  -16.0700   36.4930 C.2   855  LYS855      0.2260
    104  O         10.9490  -16.1940   36.3260 O.2   855  LYS855     -0.2867
    105  CB         9.2590  -17.6670   38.3330 C.3   855  LYS855      0.0271
    106  CG         8.0970  -18.2390   39.0810 C.3   855  LYS855      0.0035
    107  CD         8.3990  -19.6090   39.6510 C.3   855  LYS855      0.0206
    108  CE         8.0790  -19.6860   41.1320 C.3   855  LYS855      0.1093
    109  NZ         9.1160  -20.4500   41.8770 N.3   855  LYS855     -0.1314
    110  N          6.9390  -23.9960   45.8040 N.3   885  GLY885     -0.1210
    111  CA         5.4950  -24.0190   46.0800 C.3   885  GLY885      0.1956
    112  C          5.2440  -23.7460   47.5600 C.2   885  GLY885      0.2612
    113  O          6.2120  -23.6500   48.2950 O.2   885  GLY885     -0.2717
    114  N          4.0280  -23.4100   47.9570 N.am  886  SER886     -0.1952
    115  CA         3.7870  -22.9830   49.3360 C.3   886  SER886      0.1924
    116  C          3.3290  -24.0890   50.2770 C.2   886  SER886      0.2314
    117  O          2.6840  -23.7890   51.2860 O.2   886  SER886     -0.2863
    118  CB         2.6640  -21.9340   49.1960 C.3   886  SER886      0.2116
    119  OG         1.5680  -22.5070   48.4800 O.3   886  SER886     -0.2180
@<TRIPOS>BOND
     1   100    98    1
     2    97    96    2
     3    98    99    1
     4    98    95    1
     5   104   103    2
     6   103   102    1
     7    96    95    1
     8    19    17    1
     9    17    18    1
    10    17    14    1
    11    16    15    2
    12    76    75    1
    13    77    75    1
    14    95    94    1
    15    70    69    2
    16    74    73    2
    17    72    75    1
    18    72    71    1
    19    72    73    1
    20    14    15    1
    21    14    13    1
    22   102   101    1
    23   102   105    1
    24    69    71   am
    25    69    68    1
    26    73    78   am
    27   105   106    1
    28    94    92   am
    29    13    11   am
    30    68    67    1
    31   106   107    1
    32    93    92    2
    33    12    11    2
    34    92    91    1
    35    78    79    1
    36   107   108    1
    37    11    10    1
    38    79    80    1
    39    30    28    1
    40    81    80    2
    41    91    90    1
    42    10     9    1
    43   108   109    1
    44    28    27    2
    45    28    29    1
    46    90    84   am
    47    27    26    1
    48    88    87   ar
    49    84    85    2
    50    84    83    1
    51    20    21    1
    52    24    21    1
    53    24    25    2
    54    62    61    2
    55    26    25    1
    56    61    60    1
    57    21    22    1
    58    65    63    1
    59    87    89   ar
    60    87    86    1
    61    83    86    1
    62    83    82    1
    63     4     3    2
    64    60    63    1
    65    60    59    1
    66    22    23    2
    67    63    64    1
    68    41    40    2
    69    51    49   ar
    70     8     6   ar
    71     3     2    1
    72    42    43    1
    73    42    39    1
    74   110   111    1
    75     6     5    1
    76     6     7   ar
    77     5     2    1
    78   111   112    1
    79    66    64    1
    80    40    39    1
    81    49    50   ar
    82    49    48    1
    83     2     1    1
    84    39    38    1
    85    48    45    1
    86   112   114   am
    87   112   113    2
    88   114   115    1
    89    34    33    2
    90   119   118    1
    91    57    56    1
    92    58    56    1
    93    45    46    1
    94    45    44    1
    95    37    35    1
    96   118   115    1
    97   115   116    1
    98    47    46    2
    99    33    32    1
   100    56    53    1
   101    35    32    1
   102    35    36    1
   103   116   117    2
   104    32    31    1
   105    53    52    1
   106    53    54    1
   107    54    55    2
