@<TRIPOS>MOLECULE
tmp/1qhaA02.pdb
 135 127 0 0 0
SMALL
GASTEIGER

@<TRIPOS>ATOM
      1  N         -6.0230  -23.0230   43.2630 N.3   523  GLY523     -0.1210
      2  CA        -6.2130  -21.6370   42.9350 C.3   523  GLY523      0.1956
      3  C         -5.2780  -21.0450   41.8980 C.2   523  GLY523      0.2612
      4  O         -5.5820  -20.0510   41.2260 O.2   523  GLY523     -0.2717
      5  N         -4.0390  -21.4940   41.8880 N.am  524  GLY524     -0.1956
      6  CA        -3.0110  -21.1730   40.9330 C.3   524  GLY524      0.1869
      7  C         -3.0700  -22.0780   39.7060 C.2   524  GLY524      0.2309
      8  O         -4.0390  -22.7680   39.4660 O.2   524  GLY524     -0.2863
      9  N         -6.6650  -20.4500   47.2060 N.3   592  SER592     -0.1202
     10  CA        -6.2500  -19.1270   46.7480 C.3   592  SER592      0.2020
     11  C         -7.3330  -18.1340   46.3140 C.2   592  SER592      0.2619
     12  O         -7.3560  -17.6620   45.1770 O.2   592  SER592     -0.2717
     13  CB        -5.3600  -19.4590   45.4980 C.3   592  SER592      0.2103
     14  OG        -4.0740  -19.2320   46.0550 O.3   592  SER592     -0.2182
     15  N         -8.3180  -17.9200   47.1510 N.am  593  PHE593     -0.1962
     16  CA        -9.4400  -17.0240   46.9260 C.3   593  PHE593      0.1756
     17  C         -9.7760  -16.3560   48.2630 C.2   593  PHE593      0.2461
     18  O         -9.5460  -16.9370   49.3170 O.2   593  PHE593     -0.2730
     19  CB       -10.6550  -17.8490   46.4640 C.3   593  PHE593      0.0574
     20  CG       -10.2810  -18.6640   45.2490 C.ar  593  PHE593     -0.0200
     21  CD1      -10.3730  -18.0580   44.0010 C.ar  593  PHE593     -0.0042
     22  CD2       -9.7600  -19.9510   45.3790 C.ar  593  PHE593     -0.0042
     23  CE1      -10.0320  -18.7660   42.8690 C.ar  593  PHE593     -0.0003
     24  CE2       -9.4190  -20.6530   44.2330 C.ar  593  PHE593     -0.0003
     25  CZ        -9.5740  -20.0610   42.9880 C.ar  593  PHE593     -0.0000
     26  N        -10.4270  -15.2210   48.2180 N.am  594  PRO594     -0.2727
     27  CA       -10.8630  -14.5320   49.4370 C.3   594  PRO594      0.1402
     28  C        -11.9170  -15.2500   50.2700 C.2   594  PRO594      0.2269
     29  O        -13.0140  -15.6750   49.8740 O.2   594  PRO594     -0.2865
     30  CB       -11.3230  -13.1850   48.8880 C.3   594  PRO594      0.0296
     31  CG       -11.7920  -13.5030   47.5080 C.3   594  PRO594      0.0237
     32  CD       -10.9330  -14.5940   46.9710 C.3   594  PRO594      0.0939
     33  N        -12.7000  -15.2830   42.2860 N.3   609  THR609     -0.1203
     34  CA       -11.7950  -14.4020   41.5740 C.3   609  THR609      0.1994
     35  C        -11.0660  -15.3340   40.5670 C.2   609  THR609      0.2617
     36  O        -11.1640  -16.5790   40.5970 O.2   609  THR609     -0.2717
     37  CB       -10.6740  -13.7940   42.4530 C.3   609  THR609      0.1784
     38  OG1       -9.8690  -14.9170   42.9170 O.3   609  THR609     -0.2211
     39  CG2      -11.3000  -13.0540   43.6140 C.3   609  THR609      0.0376
     40  N        -10.2610  -14.6970   39.7320 N.am  610  LYS610     -0.1979
     41  CA        -9.4890  -15.3500   38.6980 C.3   610  LYS610      0.1596
     42  C        -10.3920  -16.1230   37.7590 C.2   610  LYS610      0.2287
     43  O        -11.4430  -15.5640   37.4590 O.2   610  LYS610     -0.2864
     44  CB        -8.3810  -16.2350   39.2650 C.3   610  LYS610      0.0298
     45  CG        -7.3620  -15.4350   40.0740 C.3   610  LYS610      0.0038
     46  CD        -6.2540  -16.3920   40.5250 C.3   610  LYS610      0.0206
     47  CE        -6.7640  -17.5240   41.4030 C.3   610  LYS610      0.1093
     48  NZ        -6.3110  -17.3490   42.8160 N.3   610  LYS610     -0.1314
     49  N         -4.5540  -18.9950   52.5780 N.3   645  ASN645     -0.1225
     50  CA        -4.3750  -18.2440   51.3240 C.3   645  ASN645      0.1785
     51  C         -2.9630  -18.5160   50.8180 C.2   645  ASN645      0.2597
     52  O         -2.1020  -18.6270   51.6920 O.2   645  ASN645     -0.2718
     53  CB        -4.5590  -16.7510   51.5220 C.3   645  ASN645      0.1169
     54  CG        -4.4890  -16.0040   50.1990 C.2   645  ASN645      0.2627
     55  OD1       -5.3530  -16.1610   49.3400 O.2   645  ASN645     -0.2716
     56  ND2       -3.4750  -15.2140   49.9360 N.am  645  ASN645     -0.0877
     57  N         -2.7670  -18.6850   49.5170 N.am  646  ASP646     -0.1960
     58  CA        -1.4770  -18.9990   48.9210 C.3   646  ASP646      0.1840
     59  C         -0.3950  -18.0510   49.4290 C.2   646  ASP646      0.2622
     60  O          0.8110  -18.2560   49.4190 O.2   646  ASP646     -0.2715
     61  CB        -1.4630  -19.0620   47.3940 C.3   646  ASP646      0.1450
     62  CG        -2.0080  -17.9400   46.5540 C.2   646  ASP646      0.3671
     63  OD1       -2.7080  -17.0750   47.1310 O.co2 646  ASP646     -0.2456
     64  OD2       -1.8980  -17.9570   45.2870 O.co2 646  ASP646     -0.2456
     65  N         -0.9020  -16.8510   49.7080 N.am  647  THR647     -0.1951
     66  CA        -0.0980  -15.7140   50.1690 C.3   647  THR647      0.1897
     67  C          0.5030  -16.0240   51.5200 C.2   647  THR647      0.2313
     68  O          1.7230  -15.8440   51.6990 O.2   647  THR647     -0.2863
     69  CB        -1.0360  -14.5100   50.1540 C.3   647  THR647      0.1794
     70  OG1       -0.4610  -13.5050   49.3480 O.3   647  THR647     -0.2208
     71  CG2       -1.6480  -14.0030   51.4040 C.3   647  THR647      0.0378
     72  N          2.1100  -12.6750   46.0670 N.3   666  ILE666     -0.1245
     73  CA         1.8610  -13.4490   44.8710 C.3   666  ILE666      0.1561
     74  C          1.7100  -12.6270   43.6040 C.2   666  ILE666      0.2260
     75  O          0.8650  -11.7250   43.4820 O.2   666  ILE666     -0.2867
     76  CB         0.6350  -14.3600   45.0690 C.3   666  ILE666      0.0252
     77  CG1        0.7960  -15.2510   46.3010 C.3   666  ILE666      0.0019
     78  CG2        0.4060  -15.1450   43.7820 C.3   666  ILE666      0.0019
     79  CD1        1.7540  -16.4200   46.1040 C.3   666  ILE666      0.0001
     80  N         -1.0430  -16.1140   38.2090 N.3   669  THR669     -0.1203
     81  CA        -2.3580  -15.9700   37.6040 C.3   669  THR669      0.1994
     82  C         -3.1170  -14.8080   38.2200 C.2   669  THR669      0.2618
     83  O         -3.5980  -13.9890   37.4650 O.2   669  THR669     -0.2717
     84  CB        -3.2000  -17.2370   37.7590 C.3   669  THR669      0.1784
     85  OG1       -2.5410  -18.3350   37.1180 O.3   669  THR669     -0.2211
     86  CG2       -4.5780  -17.0360   37.1460 C.3   669  THR669      0.0376
     87  N         -3.1240  -14.6640   39.5520 N.am  670  GLY670     -0.1942
     88  CA        -3.6690  -13.4490   40.1720 C.3   670  GLY670      0.2014
     89  C         -2.5770  -12.7520   40.9800 C.2   670  GLY670      0.2640
     90  O         -1.3880  -13.0060   40.7630 O.2   670  GLY670     -0.2714
     91  N         -2.9170  -11.6500   41.6760 N.am  671  SER671     -0.1935
     92  CA        -1.9110  -10.9670   42.4790 C.3   671  SER671      0.2055
     93  C         -2.4010  -10.6110   43.8640 C.2   671  SER671      0.2643
     94  O         -3.5780  -10.2460   43.9750 O.2   671  SER671     -0.2714
     95  CB        -1.2730   -9.7930   41.7680 C.3   671  SER671      0.2130
     96  OG        -0.4460   -9.1420   42.7230 O.3   671  SER671     -0.2179
     97  N         -1.5670  -10.8140   44.8990 N.am  672  ASN672     -0.1971
     98  CA        -2.0740  -10.5670   46.2620 C.3   672  ASN672      0.1688
     99  C         -0.9230  -10.4700   47.2350 C.2   672  ASN672      0.2292
    100  O          0.2360  -10.7160   46.8780 O.2   672  ASN672     -0.2864
    101  CB        -3.1370  -11.5970   46.6170 C.3   672  ASN672      0.1181
    102  CG        -3.8640  -11.4190   47.9340 C.2   672  ASN672      0.2629
    103  OD1       -3.8640  -10.3240   48.4740 O.2   672  ASN672     -0.2716
    104  ND2       -4.4550  -12.4540   48.5480 N.am  672  ASN672     -0.0877
    105  N         -6.1720   -9.3030   50.1640 N.3   697  GLU697     -0.1245
    106  CA        -7.1310   -9.3140   49.0700 C.3   697  GLU697      0.1567
    107  C         -7.0020   -7.9740   48.3450 C.2   697  GLU697      0.2260
    108  O         -7.9570   -7.3740   47.8570 O.2   697  GLU697     -0.2867
    109  CB        -8.5120   -9.7340   49.5090 C.3   697  GLU697      0.0388
    110  CG        -8.5500  -11.2270   49.8320 C.3   697  GLU697      0.1160
    111  CD        -8.0820  -12.1340   48.6920 C.2   697  GLU697      0.3649
    112  OE1       -8.2860  -11.8260   47.4900 O.co2 697  GLU697     -0.2457
    113  OE2       -7.5710  -13.2440   49.0370 O.co2 697  GLU697     -0.2457
    114  N         -6.1410   -7.3150   45.2690 N.3   699  GLY699     -0.1225
    115  CA        -6.5140   -7.1360   43.8730 C.3   699  GLY699      0.1811
    116  C         -7.7770   -6.2960   43.7370 C.2   699  GLY699      0.2280
    117  O         -8.0810   -5.9160   42.6120 O.2   699  GLY699     -0.2866
    118  N        -11.4520   -6.7530   41.2930 N.3   728  GLN728     -0.1245
    119  CA       -10.0510   -7.1140   41.1530 C.3   728  GLN728      0.1566
    120  C         -9.3580   -6.2650   40.0890 C.2   728  GLN728      0.2260
    121  O         -8.4560   -6.7200   39.3740 O.2   728  GLN728     -0.2867
    122  CB        -9.8360   -8.5640   40.8000 C.3   728  GLN728      0.0367
    123  CG       -10.5730   -9.5280   41.6990 C.3   728  GLN728      0.0905
    124  CD       -10.0640   -9.6020   43.1190 C.2   728  GLN728      0.2608
    125  OE1      -10.8300   -9.2830   44.0280 O.2   728  GLN728     -0.2717
    126  NE2       -8.8470  -10.1080   43.3420 N.am  728  GLN728     -0.0878
    127  N         -5.6880   -5.9840   40.4530 N.3   731  GLU731     -0.1245
    128  CA        -5.1260   -7.2610   40.0220 C.3   731  GLU731      0.1567
    129  C         -5.1270   -7.3370   38.5020 C.2   731  GLU731      0.2260
    130  O         -4.1920   -7.8620   37.8860 O.2   731  GLU731     -0.2867
    131  CB        -5.9330   -8.4110   40.6070 C.3   731  GLU731      0.0388
    132  CG        -5.7930   -9.6700   39.7490 C.3   731  GLU731      0.1160
    133  CD        -6.4540  -10.8080   40.4860 C.2   731  GLU731      0.3649
    134  OE1       -5.8190  -11.4050   41.3900 O.co2 731  GLU731     -0.2457
    135  OE2       -7.5860  -11.2090   40.1440 O.co2 731  GLU731     -0.2457
@<TRIPOS>BOND
     1    85    84    1
     2    86    84    1
     3    43    42    2
     4    83    82    2
     5    81    84    1
     6    81    80    1
     7    81    82    1
     8    42    41    1
     9   130   129    2
    10    82    87   am
    11   129   128    1
    12    41    44    1
    13    41    40    1
    14    44    45    1
    15   121   120    2
    16     8     7    2
    17    87    88    1
    18     7     6    1
    19    40    35   am
    20   132   133    1
    21   132   131    1
    22   128   127    1
    23   128   131    1
    24    45    46    1
    25   120   119    1
    26   135   133   ar
    27    88    89    1
    28   133   134   ar
    29    46    47    1
    30    35    36    2
    31    35    34    1
    32    90    89    2
    33   122   119    1
    34   122   123    1
    35     6     5    1
    36    89    91   am
    37   119   118    1
    38     4     3    2
    39    47    48    1
    40    34    33    1
    41    34    37    1
    42    91    92    1
    43   123   124    1
    44    95    92    1
    45    95    96    1
    46     5     3   am
    47     3     2    1
    48    37    38    1
    49    37    39    1
    50    92    93    1
    51   117   116    2
    52    23    25   ar
    53    23    21   ar
    54     2     1    1
    55    25    24   ar
    56   124   126   am
    57   124   125    2
    58    75    74    2
    59    74    73    1
    60   116   115    1
    61    78    76    1
    62    93    94    2
    63    93    97   am
    64   115   114    1
    65    21    20   ar
    66    24    22   ar
    67    73    76    1
    68    73    72    1
    69    97    98    1
    70    76    77    1
    71    12    11    2
    72    20    22   ar
    73    20    19    1
    74    64    62   ar
    75    13    14    1
    76    13    10    1
    77    79    77    1
    78    98   101    1
    79    98    99    1
    80    11    10    1
    81    11    15   am
    82    19    16    1
    83    62    63   ar
    84    62    61    1
    85   101   102    1
    86    10     9    1
    87   100    99    2
    88    16    15    1
    89    16    17    1
    90    32    31    1
    91    32    26    1
    92    61    58    1
    93   112   111   ar
    94    31    30    1
    95   108   107    2
    96   102   103    2
    97   102   104   am
    98    26    17   am
    99    26    27    1
   100    17    18    2
   101   107   106    1
   102   111   113   ar
   103   111   110    1
   104    30    27    1
   105    58    59    1
   106    58    57    1
   107   106   109    1
   108   106   105    1
   109    55    54    2
   110    70    69    1
   111    60    59    2
   112    59    65   am
   113    27    28    1
   114   109   110    1
   115    57    51   am
   116    65    66    1
   117    29    28    2
   118    56    54   am
   119    69    66    1
   120    69    71    1
   121    66    67    1
   122    54    53    1
   123    51    50    1
   124    51    52    2
   125    50    53    1
   126    50    49    1
   127    67    68    2
