@<TRIPOS>MOLECULE
tmp/1qhaA00.pdb
 132 124 0 0 0
SMALL
GASTEIGER

@<TRIPOS>ATOM
      1  N         26.3970   21.3130   -2.2090 N.3    76  GLY76      -0.1225
      2  CA        26.7630   21.3580   -3.6070 C.3    76  GLY76       0.1811
      3  C         27.3090   22.7570   -3.9070 C.2    76  GLY76       0.2280
      4  O         27.7120   23.4850   -2.9810 O.2    76  GLY76      -0.2866
      5  N         24.5640   17.0520    1.4520 N.3   144  SER144     -0.1202
      6  CA        25.3960   16.1700    0.6390 C.3   144  SER144      0.2020
      7  C         26.7150   15.7240    1.2370 C.2   144  SER144      0.2619
      8  O         27.7760   16.1370    0.7440 O.2   144  SER144     -0.2717
      9  CB        25.6530   16.9350   -0.6970 C.3   144  SER144      0.2103
     10  OG        25.9370   18.3110   -0.3710 O.3   144  SER144     -0.2182
     11  N         26.7230   15.0020    2.3430 N.am  145  PHE145     -0.1962
     12  CA        27.9250   14.5290    3.0460 C.3   145  PHE145      0.1756
     13  C         27.6310   13.1890    3.7150 C.2   145  PHE145      0.2461
     14  O         26.4430   12.9440    3.9640 O.2   145  PHE145     -0.2730
     15  CB        28.1790   15.5580    4.1860 C.3   145  PHE145      0.0574
     16  CG        28.4870   16.9070    3.6190 C.ar  145  PHE145     -0.0200
     17  CD1       29.7360   17.1450    3.0350 C.ar  145  PHE145     -0.0042
     18  CD2       27.5180   17.8870    3.5870 C.ar  145  PHE145     -0.0042
     19  CE1       29.9670   18.3820    2.4320 C.ar  145  PHE145     -0.0003
     20  CE2       27.7560   19.1260    3.0300 C.ar  145  PHE145     -0.0003
     21  CZ        29.0050   19.3460    2.4560 C.ar  145  PHE145     -0.0000
     22  N         28.6320   12.3460    3.9340 N.am  146  PRO146     -0.2727
     23  CA        28.4290   11.0240    4.5100 C.3   146  PRO146      0.1402
     24  C         27.9390   11.1030    5.9400 C.2   146  PRO146      0.2269
     25  O         28.5300   11.8150    6.7540 O.2   146  PRO146     -0.2865
     26  CB        29.7810   10.3610    4.4070 C.3   146  PRO146      0.0296
     27  CG        30.7520   11.5270    4.3230 C.3   146  PRO146      0.0237
     28  CD        30.0420   12.5950    3.5600 C.3   146  PRO146      0.0939
     29  N         33.6280   16.6180    3.2890 N.3   161  THR161     -0.1203
     30  CA        34.3030   16.4350    2.0280 C.3   161  THR161      0.1994
     31  C         34.0530   17.6080    1.0880 C.2   161  THR161      0.2617
     32  O         33.2160   18.4640    1.3780 O.2   161  THR161     -0.2717
     33  CB        33.7450   15.2050    1.2710 C.3   161  THR161      0.1784
     34  OG1       32.3410   15.4140    1.0570 O.3   161  THR161     -0.2211
     35  CG2       33.9690   13.9160    2.0360 C.3   161  THR161      0.0376
     36  N         34.7560   17.6290   -0.0380 N.am  162  LYS162     -0.1979
     37  CA        34.5530   18.6710   -1.0310 C.3   162  LYS162      0.1596
     38  C         34.9990   20.0050   -0.4430 C.2   162  LYS162      0.2287
     39  O         36.0870   20.0380    0.1430 O.2   162  LYS162     -0.2864
     40  CB        33.0860   18.7240   -1.4730 C.3   162  LYS162      0.0298
     41  CG        32.7640   17.6480   -2.5150 C.3   162  LYS162      0.0038
     42  CD        31.2590   17.5160   -2.7060 C.3   162  LYS162      0.0206
     43  CE        30.4870   17.6310   -1.4240 C.3   162  LYS162      0.1093
     44  NZ        29.0410   17.3410   -1.5590 N.3   162  LYS162     -0.1314
     45  N         20.6710   12.4720    1.1900 N.3   197  ASN197     -0.1225
     46  CA        21.8380   12.7240    0.3610 C.3   197  ASN197      0.1785
     47  C         21.4220   13.2160   -1.0190 C.2   197  ASN197      0.2597
     48  O         20.2360   12.9240   -1.3280 O.2   197  ASN197     -0.2718
     49  CB        22.6980   11.4650    0.2500 C.3   197  ASN197      0.1169
     50  CG        24.0650   11.7450   -0.3430 C.2   197  ASN197      0.2627
     51  OD1       24.9390   12.2980    0.3250 O.2   197  ASN197     -0.2716
     52  ND2       24.2520   11.3640   -1.6000 N.am  197  ASN197     -0.0877
     53  N         22.2090   13.9750   -1.6650 N.am  198  ASP198     -0.1960
     54  CA        21.7520   14.5670   -2.9530 C.3   198  ASP198      0.1840
     55  C         21.6870   13.4200   -3.9370 C.2   198  ASP198      0.2622
     56  O         20.8500   13.4010   -4.8840 O.2   198  ASP198     -0.2715
     57  CB        22.6920   15.7250   -3.2600 C.3   198  ASP198      0.1450
     58  CG        24.1460   15.2460   -3.3980 C.2   198  ASP198      0.3671
     59  OD1       24.4190   14.1080   -2.9640 O.co2 198  ASP198     -0.2456
     60  OD2       25.0140   15.9350   -3.9510 O.co2 198  ASP198     -0.2456
     61  N         22.3560   12.3100   -3.5900 N.am  199  THR199     -0.1951
     62  CA        22.1550   11.1520   -4.4680 C.3   199  THR199      0.1897
     63  C         20.7500   10.5830   -4.4050 C.2   199  THR199      0.2313
     64  O         20.0750   10.2710   -5.3750 O.2   199  THR199     -0.2863
     65  CB        23.1520   10.0110   -4.3390 C.3   199  THR199      0.1794
     66  OG1       23.2510    9.5640   -2.9970 O.3   199  THR199     -0.2208
     67  CG2       24.4850   10.4000   -4.9350 C.3   199  THR199      0.0378
     68  N         25.7390   11.2520   -8.9410 N.3   218  ILE218     -0.1245
     69  CA        26.1310   12.6540   -8.8600 C.3   218  ILE218      0.1561
     70  C         27.5770   12.7650   -9.3430 C.2   218  ILE218      0.2260
     71  O         28.4380   11.9500   -9.0130 O.2   218  ILE218     -0.2867
     72  CB        26.1140   13.3300   -7.4680 C.3   218  ILE218      0.0252
     73  CG1       24.7090   13.3840   -6.8830 C.3   218  ILE218      0.0019
     74  CG2       26.7480   14.7220   -7.5530 C.3   218  ILE218      0.0019
     75  CD1       23.7230   14.4230   -7.3620 C.3   218  ILE218      0.0001
     76  N         30.4760   18.9670   -8.0100 N.3   221  THR221     -0.1203
     77  CA        31.5950   19.3300   -7.1530 C.3   221  THR221      0.1994
     78  C         32.2180   17.9960   -6.6680 C.2   221  THR221      0.2618
     79  O         33.4370   17.8140   -6.7380 O.2   221  THR221     -0.2717
     80  CB        31.2270   20.1130   -5.9140 C.3   221  THR221      0.1784
     81  OG1       30.3690   21.1850   -6.2060 O.3   221  THR221     -0.2211
     82  CG2       32.4620   20.5060   -5.1020 C.3   221  THR221      0.0376
     83  N         31.3570   17.1360   -6.1440 N.am  222  GLY222     -0.1942
     84  CA        31.8010   15.7790   -5.7890 C.3   222  GLY222      0.2014
     85  C         31.0520   14.7510   -6.6670 C.2   222  GLY222      0.2640
     86  O         30.3230   15.0660   -7.5790 O.2   222  GLY222     -0.2714
     87  N         31.3120   13.4890   -6.4220 N.am  223  THR223     -0.1936
     88  CA        30.7010   12.3530   -7.0780 C.3   223  THR223      0.2028
     89  C         30.3550   11.3350   -5.9950 C.2   223  THR223      0.2642
     90  O         31.1320   11.0820   -5.0640 O.2   223  THR223     -0.2714
     91  CB        31.6890   11.7190   -8.0810 C.3   223  THR223      0.1808
     92  OG1       30.9930   10.6760   -8.7820 O.3   223  THR223     -0.2208
     93  CG2       32.8440   11.0570   -7.3810 C.3   223  THR223      0.0379
     94  N         29.2090   10.7430   -6.1580 N.am  224  ASN224     -0.1971
     95  CA        28.6790    9.6350   -5.3800 C.3   224  ASN224      0.1688
     96  C         27.5320    8.9590   -6.1190 C.2   224  ASN224      0.2292
     97  O         27.1240    9.5070   -7.1490 O.2   224  ASN224     -0.2864
     98  CB        28.2250   10.1170   -4.0020 C.3   224  ASN224      0.1181
     99  CG        27.9400    8.9720   -3.0500 C.2   224  ASN224      0.2629
    100  OD1       27.2130    9.1350   -2.0700 O.2   224  ASN224     -0.2716
    101  ND2       28.5130    7.8100   -3.3370 N.am  224  ASN224     -0.0877
    102  N         28.7340    6.1700   -0.9680 N.3   249  GLU249     -0.1245
    103  CA        29.9330    6.9500   -0.6400 C.3   249  GLU249      0.1567
    104  C         31.1700    6.4250   -1.3790 C.2   249  GLU249      0.2260
    105  O         32.2980    6.4320   -0.8620 O.2   249  GLU249     -0.2867
    106  CB        30.2110    6.9410    0.8570 C.3   249  GLU249      0.0388
    107  CG        29.4900    7.9370    1.7130 C.3   249  GLU249      0.1160
    108  CD        29.4960    9.4000    1.4230 C.2   249  GLU249      0.3649
    109  OE1       30.4400   10.2450    1.5710 O.co2 249  GLU249     -0.2457
    110  OE2       28.4310   10.0220    1.0930 O.co2 249  GLU249     -0.2457
    111  N         33.1440    7.9410   -3.2820 N.3   251  GLY251     -0.1225
    112  CA        34.2400    8.8920   -3.3270 C.3   251  GLY251      0.1811
    113  C         35.4510    8.4020   -2.5200 C.2   251  GLY251      0.2280
    114  O         36.5890    8.8210   -2.7390 O.2   251  GLY251     -0.2866
    115  N         38.7380   10.8310    0.3100 N.3   280  GLN280     -0.1245
    116  CA        38.0330   10.8630   -0.9500 C.3   280  GLN280      0.1566
    117  C         38.9010   10.7110   -2.2060 C.2   280  GLN280      0.2260
    118  O         38.6640   11.4360   -3.1770 O.2   280  GLN280     -0.2867
    119  CB        37.2290   12.1490   -1.1540 C.3   280  GLN280      0.0367
    120  CG        36.2990   12.5560   -0.0360 C.3   280  GLN280      0.0905
    121  CD        35.1690   11.5510    0.0180 C.2   280  GLN280      0.2608
    122  OE1       35.2540   10.5510    0.7450 O.2   280  GLN280     -0.2717
    123  NE2       34.1660   11.6930   -0.8270 N.am  280  GLN280     -0.0878
    124  N         37.2130   10.1650   -5.7170 N.3   283  GLU283     -0.1245
    125  CA        36.4970   11.3890   -6.0780 C.3   283  GLU283      0.1567
    126  C         37.4320   12.4690   -6.6310 C.2   283  GLU283      0.2260
    127  O         37.1960   13.2060   -7.6170 O.2   283  GLU283     -0.2867
    128  CB        35.7240   11.8400   -4.8410 C.3   283  GLU283      0.0388
    129  CG        35.4100   13.3210   -4.6940 C.3   283  GLU283      0.1160
    130  CD        34.3250   13.5610   -3.6730 C.2   283  GLU283      0.3649
    131  OE1       33.1560   13.2460   -4.0080 O.co2 283  GLU283     -0.2457
    132  OE2       34.6450   14.0220   -2.5430 O.co2 283  GLU283     -0.2457
@<TRIPOS>BOND
     1    70    71    2
     2    70    69    1
     3    68    69    1
     4    69    72    1
     5    92    91    1
     6    91    93    1
     7    91    88    1
     8    76    77    1
     9   127   126    2
    10    86    85    2
    11    74    72    1
    12    72    73    1
    13    75    73    1
    14    77    78    1
    15    77    80    1
    16    97    96    2
    17    88    87    1
    18    88    89    1
    19    79    78    2
    20    78    83   am
    21    85    87   am
    22    85    84    1
    23   126   125    1
    24    81    80    1
    25    94    89   am
    26    94    95    1
    27    83    84    1
    28    96    95    1
    29   125   124    1
    30   125   128    1
    31    89    90    2
    32    80    82    1
    33    95    98    1
    34    64    63    2
    35    67    65    1
    36    56    55    2
    37   128   129    1
    38   129   130    1
    39    62    63    1
    40    62    65    1
    41    62    61    1
    42    65    66    1
    43   131   130   ar
    44    98    99    1
    45    60    58   ar
    46    55    61   am
    47    55    54    1
    48     3     2    1
    49     3     4    2
    50   130   132   ar
    51     2     1    1
    52    58    57    1
    53    58    59   ar
    54   101    99   am
    55   112   111    1
    56   112   113    1
    57    57    54    1
    58   118   117    2
    59    99   100    2
    60    54    53    1
    61   114   113    2
    62    42    41    1
    63    42    43    1
    64    41    40    1
    65   117   116    1
    66    53    47   am
    67    52    50   am
    68    44    43    1
    69    40    37    1
    70   104   105    2
    71   104   103    1
    72    48    47    2
    73   119   116    1
    74   119   120    1
    75    37    38    1
    76    37    36    1
    77    47    46    1
    78   102   103    1
    79   116   115    1
    80   123   121   am
    81     9    10    1
    82     9     6    1
    83   103   106    1
    84    38    39    2
    85    50    49    1
    86    50    51    2
    87    36    31   am
    88   120   121    1
    89   121   122    2
    90    49    46    1
    91    46    45    1
    92     6     7    1
    93     6     5    1
    94     8     7    2
    95   106   107    1
    96    34    33    1
    97    31    32    2
    98    31    30    1
    99   110   108   ar
   100     7    11   am
   101    33    30    1
   102    33    35    1
   103   108   109   ar
   104   108   107    1
   105    30    29    1
   106    11    12    1
   107    19    21   ar
   108    19    17   ar
   109    21    20   ar
   110    20    18   ar
   111    17    16   ar
   112    12    13    1
   113    12    15    1
   114    28    22    1
   115    28    27    1
   116    18    16   ar
   117    16    15    1
   118    13    22   am
   119    13    14    2
   120    22    23    1
   121    27    26    1
   122    26    23    1
   123    23    24    1
   124    24    25    2
