@<TRIPOS>MOLECULE
tmp/1qhaA04.pdb
 151 142 0 0 0
SMALL
GASTEIGER

@<TRIPOS>ATOM
      1  N         50.2410   15.1200  -29.9450 N.3     8  VAL8       -0.1245
      2  CA        49.2040   14.2300  -29.5510 C.3     8  VAL8        0.1561
      3  C         49.6900   12.8320  -29.2380 C.2     8  VAL8        0.2260
      4  O         49.6120   12.3980  -28.0750 O.2     8  VAL8       -0.2867
      5  CB        48.0920   14.2870  -30.6130 C.3     8  VAL8        0.0252
      6  CG1       47.1000   13.1490  -30.3860 C.3     8  VAL8        0.0019
      7  CG2       47.3790   15.6140  -30.4090 C.3     8  VAL8        0.0019
      8  N         49.9750   11.3170  -25.2860 N.3    12  ASP12      -0.1239
      9  CA        49.4320   10.0240  -24.8620 C.3    12  ASP12       0.1674
     10  C         50.5240    9.1590  -24.2100 C.2    12  ASP12       0.2266
     11  O         50.1920    8.2630  -23.4320 O.2    12  ASP12      -0.2867
     12  CB        48.7950    9.2450  -25.9960 C.3    12  ASP12       0.1410
     13  CG        47.6090    9.8480  -26.6670 C.2    12  ASP12       0.3668
     14  OD1       46.7710   10.5580  -26.0550 O.co2  12  ASP12      -0.2456
     15  OD2       47.4620    9.5820  -27.8880 O.co2  12  ASP12      -0.2456
     16  N         47.1970    7.6360  -17.3500 N.3    18  MET18      -0.1230
     17  CA        45.8280    8.0800  -17.2400 C.3    18  MET18       0.1702
     18  C         44.9690    7.5160  -18.3490 C.2    18  MET18       0.2592
     19  O         43.7940    7.8900  -18.3840 O.2    18  MET18      -0.2718
     20  CB        45.7390    9.5840  -17.2260 C.3    18  MET18       0.0401
     21  CG        46.5300   10.2040  -16.1080 C.3    18  MET18       0.0596
     22  SD        46.1880   11.9730  -15.9050 S.3    18  MET18      -0.1393
     23  CE        47.8930   12.5000  -15.9130 C.3    18  MET18       0.0692
     24  N         45.5670    6.8560  -19.3250 N.am   19  ARG19      -0.1966
     25  CA        44.7650    6.3440  -20.4450 C.3    19  ARG19       0.1729
     26  C         44.4270    4.8810  -20.1010 C.2    19  ARG19       0.2616
     27  O         45.3080    4.0340  -20.1730 O.2    19  ARG19      -0.2715
     28  CB        45.4970    6.5370  -21.7670 C.3    19  ARG19       0.0348
     29  CG        45.7320    8.0030  -22.1540 C.3    19  ARG19       0.0492
     30  CD        46.3890    8.1890  -23.5080 C.3    19  ARG19       0.2205
     31  NE        45.8190    7.3200  -24.5100 N.pl3  19  ARG19      -0.0865
     32  CZ        44.9700    7.5820  -25.5030 C.cat  19  ARG19       0.5346
     33  NH1       44.5220    8.7770  -25.8720 N.pl3  19  ARG19       0.1354
     34  NH2       44.5150    6.5410  -26.1930 N.pl3  19  ARG19       0.1354
     35  N         43.2270    4.6680  -19.5690 N.am   20  LEU20      -0.1963
     36  CA        42.8270    3.3750  -19.0320 C.3    20  LEU20       0.1728
     37  C         41.9790    2.5600  -20.0090 C.2    20  LEU20       0.2616
     38  O         40.8530    2.9800  -20.3030 O.2    20  LEU20      -0.2715
     39  CB        41.9600    3.6000  -17.7650 C.3    20  LEU20       0.0311
     40  CG        42.5930    4.5430  -16.7270 C.3    20  LEU20       0.0022
     41  CD1       41.6800    4.6450  -15.5260 C.3    20  LEU20       0.0001
     42  CD2       43.9600    3.9770  -16.3470 C.3    20  LEU20       0.0001
     43  N         42.4320    1.4000  -20.4130 N.am   21  SER21      -0.1950
     44  CA        41.7730    0.4760  -21.2930 C.3    21  SER21       0.1924
     45  C         40.6540   -0.3700  -20.6790 C.2    21  SER21       0.2314
     46  O         40.5340   -0.4750  -19.4650 O.2    21  SER21      -0.2863
     47  CB        42.8460   -0.5800  -21.6790 C.3    21  SER21       0.2116
     48  OG        43.1860   -1.2850  -20.4990 O.3    21  SER21      -0.2180
     49  N         33.7420   21.4000  -29.4160 N.3   334  ASN334     -0.1240
     50  CA        33.9800   20.9660  -30.7830 C.3   334  ASN334      0.1653
     51  C         34.3970   22.0960  -31.7220 C.2   334  ASN334      0.2266
     52  O         35.3510   21.9600  -32.4780 O.2   334  ASN334     -0.2867
     53  CB        32.6400   20.4860  -31.3770 C.3   334  ASN334      0.1155
     54  CG        31.8340   19.6700  -30.3710 C.2   334  ASN334      0.2627
     55  OD1       31.0930   20.2050  -29.5100 O.2   334  ASN334     -0.2716
     56  ND2       32.0810   18.3730  -30.5550 N.am  334  ASN334     -0.0877
     57  N         44.4390   18.4990  -25.5400 N.3   362  HIS362     -0.1241
     58  CA        44.6100   17.0680  -25.4200 C.3   362  HIS362      0.1621
     59  C         44.7690   16.6460  -23.9820 C.2   362  HIS362      0.2264
     60  O         44.3250   15.5400  -23.6550 O.2   362  HIS362     -0.2867
     61  CB        45.6210   16.5270  -26.4180 C.3   362  HIS362      0.0745
     62  CG        45.5320   15.0380  -26.6070 C.ar  362  HIS362      0.0817
     63  ND1       46.6520   14.2480  -26.4160 N.ar  362  HIS362     -0.2268
     64  CD2       44.5540   14.2080  -26.9720 C.ar  362  HIS362      0.1154
     65  CE1       46.2950   12.9750  -26.5860 C.ar  362  HIS362      0.1986
     66  NE2       45.0280   12.9100  -26.8970 N.ar  362  HIS362     -0.2212
     67  N         41.3280   16.6030  -22.5020 N.3   365  THR365     -0.1203
     68  CA        40.6200   15.4400  -22.9620 C.3   365  THR365      0.1994
     69  C         41.1170   14.1980  -22.2490 C.2   365  THR365      0.2617
     70  O         40.2600   13.4230  -21.8710 O.2   365  THR365     -0.2717
     71  CB        40.4670   15.2170  -24.4590 C.3   365  THR365      0.1784
     72  OG1       40.8720   13.9350  -24.9510 O.3   365  THR365     -0.2211
     73  CG2       40.8610   16.2940  -25.4080 C.3   365  THR365      0.0376
     74  N         42.4320   13.9550  -22.0630 N.am  366  ILE366     -0.1979
     75  CA        42.7600   12.7540  -21.3020 C.3   366  ILE366      0.1595
     76  C         42.2380   12.7870  -19.8600 C.2   366  ILE366      0.2287
     77  O         41.6050   11.8410  -19.3770 O.2   366  ILE366     -0.2864
     78  CB        44.0620   12.0640  -21.5110 C.3   366  ILE366      0.0276
     79  CG1       44.7940   11.9380  -20.1430 C.3   366  ILE366      0.0022
     80  CG2       45.1070   12.3330  -22.5720 C.3   366  ILE366      0.0022
     81  CD1       45.3410   10.5390  -20.0590 C.3   366  ILE366      0.0001
     82  N         38.3620   12.2920  -19.6150 N.3   369  PHE369     -0.1227
     83  CA        37.9880   11.0080  -20.1690 C.3   369  PHE369      0.1736
     84  C         38.2840    9.8890  -19.1330 C.2   369  PHE369      0.2595
     85  O         37.4760    8.9780  -18.9180 O.2   369  PHE369     -0.2718
     86  CB        38.7490   10.7400  -21.4910 C.3   369  PHE369      0.0547
     87  CG        38.0130    9.8350  -22.4580 C.ar  369  PHE369     -0.0202
     88  CD1       37.1980    8.8070  -22.0260 C.ar  369  PHE369     -0.0042
     89  CD2       38.0540   10.0680  -23.8290 C.ar  369  PHE369     -0.0042
     90  CE1       36.5180    7.9830  -22.9180 C.ar  369  PHE369     -0.0003
     91  CE2       37.3700    9.2920  -24.7360 C.ar  369  PHE369     -0.0003
     92  CZ        36.6090    8.2280  -24.2770 C.ar  369  PHE369     -0.0000
     93  N         39.4330   10.0390  -18.4500 N.am  370  ARG370     -0.1980
     94  CA        39.7240    9.1640  -17.3370 C.3   370  ARG370      0.1597
     95  C         38.6610    9.1920  -16.2380 C.2   370  ARG370      0.2287
     96  O         38.2780    8.1570  -15.7270 O.2   370  ARG370     -0.2864
     97  CB        41.0880    9.5120  -16.7000 C.3   370  ARG370      0.0334
     98  CG        41.3680    8.5240  -15.5700 C.3   370  ARG370      0.0492
     99  CD        42.7210    8.8650  -14.9530 C.3   370  ARG370      0.2205
    100  NE        42.5130   10.1190  -14.1830 N.pl3 370  ARG370     -0.0865
    101  CZ        43.3770   10.3780  -13.1850 C.cat 370  ARG370      0.5346
    102  NH1       44.4040    9.5620  -12.9260 N.pl3 370  ARG370      0.1354
    103  NH2       43.1730   11.4630  -12.4970 N.pl3 370  ARG370      0.1354
    104  N         35.5800    7.4180  -17.7060 N.3   373  ASN373     -0.1240
    105  CA        35.8320    5.9830  -17.6430 C.3   373  ASN373      0.1653
    106  C         35.6920    5.4350  -16.2200 C.2   373  ASN373      0.2266
    107  O         35.0450    4.4080  -16.0250 O.2   373  ASN373     -0.2867
    108  CB        37.2310    5.6830  -18.1860 C.3   373  ASN373      0.1155
    109  CG        37.2550    5.7860  -19.6880 C.2   373  ASN373      0.2627
    110  OD1       38.3020    5.9920  -20.2740 O.2   373  ASN373     -0.2716
    111  ND2       36.0860    5.7090  -20.3010 N.am  373  ASN373     -0.0877
    112  N         31.6310   16.9200  -24.0780 N.3   411  GLN411     -0.1301
    113  CA        31.8980   15.5580  -24.4150 C.3   411  GLN411      0.1252
    114  C         31.6580   14.5270  -23.2940 C.3   411  GLN411      0.2009
    115  O         31.6890   13.3350  -23.6710 O.3   411  GLN411     -0.2188
    116  CB        33.4140   15.4730  -24.7630 C.3   411  GLN411      0.0314
    117  CG        33.8900   16.5420  -25.7360 C.3   411  GLN411      0.0901
    118  CD        33.0630   16.5110  -27.0260 C.2   411  GLN411      0.2608
    119  OE1       32.5760   15.4650  -27.4750 O.2   411  GLN411     -0.2717
    120  NE2       32.8660   17.6700  -27.6050 N.am  411  GLN411     -0.0878
    121  N         28.5210   11.8390  -22.9840 N.3   414  ARG414     -0.1231
    122  CA        28.5640   10.9620  -24.1280 C.3   414  ARG414      0.1694
    123  C         29.5540    9.8480  -23.9140 C.2   414  ARG414      0.2591
    124  O         29.1730    8.7360  -24.2920 O.2   414  ARG414     -0.2718
    125  CB        28.8130   11.6390  -25.4710 C.3   414  ARG414      0.0321
    126  CG        29.0790   10.7210  -26.6500 C.3   414  ARG414      0.0489
    127  CD        29.3040   11.5630  -27.9150 C.3   414  ARG414      0.2205
    128  NE        30.5570   12.3250  -27.8120 N.pl3 414  ARG414     -0.0865
    129  CZ        31.8070   12.0050  -27.9170 C.cat 414  ARG414      0.5346
    130  NH1       32.2560   10.7950  -28.2520 N.pl3 414  ARG414      0.1354
    131  NH2       32.7210   12.9640  -27.7600 N.pl3 414  ARG414      0.1354
    132  N         30.7820   10.1290  -23.5330 N.am  415  ARG415     -0.1980
    133  CA        31.8040    9.1000  -23.4180 C.3   415  ARG415      0.1597
    134  C         31.5380    8.1990  -22.1960 C.2   415  ARG415      0.2287
    135  O         31.7150    6.9980  -22.1820 O.2   415  ARG415     -0.2864
    136  CB        33.1850    9.7140  -23.3170 C.3   415  ARG415      0.0334
    137  CG        33.5390   10.9900  -24.0070 C.3   415  ARG415      0.0492
    138  CD        35.0200   11.3770  -23.8270 C.3   415  ARG415      0.2205
    139  NE        35.5580   12.0730  -24.9680 N.pl3 415  ARG415     -0.0865
    140  CZ        36.2750   13.1760  -25.0770 C.cat 415  ARG415      0.5346
    141  NH1       36.7860   13.8590  -24.0570 N.pl3 415  ARG415      0.1354
    142  NH2       36.5920   13.5690  -26.2990 N.pl3 415  ARG415      0.1354
    143  N         28.7780    5.7760  -23.0340 N.3   418  LYS418     -0.1245
    144  CA        29.3270    4.8150  -23.9920 C.3   418  LYS418      0.1561
    145  C         30.2200    3.7810  -23.3290 C.2   418  LYS418      0.2260
    146  O         30.1080    2.5940  -23.6080 O.2   418  LYS418     -0.2867
    147  CB        30.1230    5.6360  -25.0090 C.3   418  LYS418      0.0271
    148  CG        30.6430    4.8570  -26.2200 C.3   418  LYS418      0.0035
    149  CD        30.6200    5.8530  -27.3870 C.3   418  LYS418      0.0206
    150  CE        31.9310    5.8950  -28.1520 C.3   418  LYS418      0.1093
    151  NZ        32.3960    4.5450  -28.5760 N.3   418  LYS418     -0.1314
@<TRIPOS>BOND
     1    52    51    2
     2    51    50    1
     3    53    50    1
     4    53    54    1
     5    50    49    1
     6     5     7    1
     7     5     6    1
     8     5     2    1
     9    56    54   am
    10    54    55    2
    11     1     2    1
    12     2     3    1
    13     3     4    2
    14   151   150    1
    15   130   129    1
    16   150   149    1
    17   129   128    2
    18   129   131    1
    19   127   128    1
    20   127   126    1
    21    15    13   ar
    22   120   118   am
    23   119   118    2
    24   149   148    1
    25   118   117    1
    26    64    66   ar
    27    64    62   ar
    28    66    65   ar
    29    13    14   ar
    30    13    12    1
    31   126   125    1
    32    62    61    1
    33    62    63   ar
    34    65    63   ar
    35    61    58    1
    36   142   140    1
    37   148   147    1
    38    34    32    1
    39    12     9    1
    40    33    32    1
    41   117   116    1
    42    57    58    1
    43    32    31    2
    44   125   122    1
    45    58    59    1
    46    73    71    1
    47     8     9    1
    48   140   139    2
    49   140   141    1
    50   147   144    1
    51   139   138    1
    52    72    71    1
    53     9    10    1
    54   116   113    1
    55    91    92   ar
    56    91    89   ar
    57    31    30    1
    58    71    68    1
    59   113   112    1
    60   113   114    1
    61   124   123    2
    62    92    90   ar
    63    10    11    2
    64   122   123    1
    65   122   121    1
    66   137   138    1
    67   137   136    1
    68   144   145    1
    69   144   143    1
    70    59    60    2
    71   123   132   am
    72    89    87   ar
    73   115   114    1
    74   146   145    2
    75   132   133    1
    76    30    29    1
    77   133   136    1
    78   133   134    1
    79    68    67    1
    80    68    69    1
    81    90    88   ar
    82    80    78    1
    83    87    88   ar
    84    87    86    1
    85    69    74   am
    86    69    70    2
    87   134   135    2
    88    29    28    1
    89    74    75    1
    90    28    25    1
    91    47    44    1
    92    47    48    1
    93    78    75    1
    94    78    79    1
    95    86    83    1
    96    75    76    1
    97    44    45    1
    98    44    43    1
    99    45    46    2
   100    25    26    1
   101    25    24    1
   102    43    37   am
   103    38    37    2
   104   111   109   am
   105   110   109    2
   106    27    26    2
   107    83    82    1
   108    83    84    1
   109    79    81    1
   110    26    35   am
   111    37    36    1
   112    76    77    2
   113   109   108    1
   114    35    36    1
   115    24    18   am
   116    84    85    2
   117    84    93   am
   118    36    39    1
   119    93    94    1
   120    19    18    2
   121    18    17    1
   122   108   105    1
   123    39    40    1
   124   104   105    1
   125   105   106    1
   126    16    17    1
   127    94    97    1
   128    94    95    1
   129    17    20    1
   130    20    21    1
   131    40    42    1
   132    40    41    1
   133    97    98    1
   134    95    96    2
   135   106   107    2
   136    21    22    1
   137    23    22    1
   138    98    99    1
   139    99   100    1
   140   100   101    2
   141   101   102    1
   142   101   103    1
