@<TRIPOS>MOLECULE
tmp/1qhcA00.pdb
 184 176 0 0 0
SMALL
GASTEIGER

@<TRIPOS>ATOM
      1  N         34.4610  -13.0400   21.5590 N.3     4  ALA4       -0.1245
      2  CA        34.5400  -11.5800   21.4760 C.3     4  ALA4        0.1562
      3  C         33.2120  -10.9490   21.9100 C.2     4  ALA4        0.2260
      4  O         33.1920   -9.9070   22.5700 O.2     4  ALA4       -0.2867
      5  CB        34.8950  -11.1520   20.0550 C.3     4  ALA4        0.0290
      6  N         33.0050  -11.1360   25.5510 N.3     7  LYS7       -0.1231
      7  CA        33.9570  -10.1940   26.0830 C.3     7  LYS7        0.1693
      8  C         33.3300   -8.8270   26.0000 C.2     7  LYS7        0.2592
      9  O         33.5010   -8.0130   26.9030 O.2     7  LYS7       -0.2718
     10  CB        35.2560  -10.2200   25.2810 C.3     7  LYS7        0.0285
     11  CG        36.2630   -9.1790   25.7170 C.3     7  LYS7        0.0035
     12  CD        37.6540   -9.5630   25.2670 C.3     7  LYS7        0.0206
     13  CE        37.8570   -9.2480   23.8050 C.3     7  LYS7        0.1093
     14  NZ        39.0590   -8.3950   23.6340 N.3     7  LYS7       -0.1314
     15  N         32.5810   -8.5760   24.9310 N.am    8  PHE8       -0.1976
     16  CA        31.9520   -7.2670   24.7710 C.3     8  PHE8        0.1639
     17  C         30.9480   -6.9990   25.8880 C.2     8  PHE8        0.2290
     18  O         30.9190   -5.9090   26.4630 O.2     8  PHE8       -0.2864
     19  CB        31.2670   -7.1460   23.3930 C.3     8  PHE8        0.0560
     20  CG        30.5850   -5.8200   23.1730 C.ar    8  PHE8       -0.0200
     21  CD1       29.2690   -5.6210   23.6050 C.ar    8  PHE8       -0.0042
     22  CD2       31.2850   -4.7440   22.6230 C.ar    8  PHE8       -0.0042
     23  CE1       28.6550   -4.3710   23.5030 C.ar    8  PHE8       -0.0003
     24  CE2       30.6880   -3.4920   22.5150 C.ar    8  PHE8       -0.0003
     25  CZ        29.3620   -3.3060   22.9600 C.ar    8  PHE8       -0.0000
     26  N         32.8850   -6.3270   29.1430 N.3    11  GLN11      -0.1231
     27  CA        33.5020   -5.0190   29.2070 C.3    11  GLN11       0.1698
     28  C         32.6180   -3.7920   29.0180 C.2    11  GLN11       0.2592
     29  O         32.9900   -2.7110   29.4690 O.2    11  GLN11      -0.2718
     30  CB        34.6380   -4.9550   28.1970 C.3    11  GLN11       0.0381
     31  CG        35.5180   -6.1720   28.2300 C.3    11  GLN11       0.0905
     32  CD        36.8210   -5.9370   27.5210 C.2    11  GLN11       0.2608
     33  OE1       37.8770   -6.1200   28.1000 O.2    11  GLN11      -0.2717
     34  NE2       36.7580   -5.5240   26.2590 N.am   11  GLN11      -0.0878
     35  N         31.4460   -3.9350   28.3920 N.am   12  HIS12      -0.1976
     36  CA        30.6390   -2.7460   28.1090 C.3    12  HIS12       0.1656
     37  C         29.1930   -2.7290   28.5050 C.2    12  HIS12       0.2291
     38  O         28.5650   -1.6790   28.4930 O.2    12  HIS12      -0.2864
     39  CB        30.7480   -2.4200   26.6140 C.3    12  HIS12       0.0771
     40  CG        32.1560   -2.2360   26.1530 C.ar   12  HIS12       0.0820
     41  ND1       32.9020   -1.1250   26.4750 N.ar   12  HIS12      -0.2267
     42  CD2       32.9800   -3.0500   25.4550 C.ar   12  HIS12       0.1154
     43  CE1       34.1240   -1.2610   25.9960 C.ar   12  HIS12       0.1986
     44  NE2       34.1980   -2.4210   25.3730 N.ar   12  HIS12      -0.2212
     45  N         43.1740   -0.3110   32.3890 N.3    41  LYS41      -0.1245
     46  CA        42.6990    0.0810   31.0640 C.3    41  LYS41       0.1561
     47  C         42.4190    1.5740   31.1930 C.2    41  LYS41       0.2260
     48  O         41.6560    1.9900   32.0690 O.2    41  LYS41      -0.2867
     49  CB        41.4240   -0.6750   30.7030 C.3    41  LYS41       0.0271
     50  CG        40.9170   -0.3860   29.3040 C.3    41  LYS41       0.0035
     51  CD        39.6630   -1.2120   28.9910 C.3    41  LYS41       0.0206
     52  CE        39.5850   -1.5840   27.5040 C.3    41  LYS41       0.1093
     53  NZ        38.1890   -1.5190   26.9760 N.3    41  LYS41      -0.1314
     54  N         40.6490    3.8240   29.2900 N.3    43  VAL43      -0.1231
     55  CA        39.2700    4.2490   29.0760 C.3    43  VAL43       0.1692
     56  C         38.3340    3.0900   28.7970 C.2    43  VAL43       0.2592
     57  O         38.6790    2.1660   28.0600 O.2    43  VAL43      -0.2718
     58  CB        39.1600    5.1890   27.8720 C.3    43  VAL43       0.0266
     59  CG1       37.6920    5.5010   27.5990 C.3    43  VAL43       0.0020
     60  CG2       39.9540    6.4610   28.1310 C.3    43  VAL43       0.0020
     61  N         37.1390    3.1580   29.3690 N.am   44  ASN44      -0.1960
     62  CA        36.1460    2.1250   29.1430 C.3    44  ASN44       0.1819
     63  C         34.7580    2.6650   29.3320 C.2    44  ASN44       0.2621
     64  O         34.4840    3.3410   30.3170 O.2    44  ASN44      -0.2715
     65  CB        36.3360    0.9470   30.0860 C.3    44  ASN44       0.1195
     66  CG        35.6100   -0.2890   29.6010 C.2    44  ASN44       0.2630
     67  OD1       35.9340   -0.8390   28.5480 O.2    44  ASN44      -0.2716
     68  ND2       34.6160   -0.7290   30.3640 N.am   44  ASN44      -0.0877
     69  N         33.8750    2.3300   28.3980 N.am   45  THR45      -0.1951
     70  CA        32.4960    2.7780   28.4460 C.3    45  THR45       0.1897
     71  C         31.5500    1.6350   28.7700 C.2    45  THR45       0.2313
     72  O         31.6700    0.5440   28.2270 O.2    45  THR45      -0.2863
     73  CB        32.0790    3.3810   27.0860 C.3    45  THR45       0.1794
     74  OG1       32.9730    4.4480   26.7500 O.3    45  THR45      -0.2208
     75  CG2       30.6230    3.8980   27.1330 C.3    45  THR45       0.0378
     76  N         34.7990    3.0240   10.8990 N.3    65  CYS65      -0.1221
     77  CA        35.4280    2.7680   12.1810 C.3    65  CYS65       0.1808
     78  C         36.6740    3.6330   12.2680 C.2    65  CYS65       0.2601
     79  O         37.2590    3.9860   11.2390 O.2    65  CYS65      -0.2717
     80  CB        35.8630    1.3100   12.2740 C.3    65  CYS65       0.0970
     81  SG        34.5420    0.0860   12.1650 S.3    65  CYS65      -0.0800
     82  N         37.0840    3.9420   13.4950 N.am   66  LYS66      -0.1965
     83  CA        38.2780    4.7430   13.7300 C.3    66  LYS66       0.1728
     84  C         39.4980    4.0900   13.0720 C.2    66  LYS66       0.2616
     85  O         40.4440    4.7770   12.6830 O.2    66  LYS66      -0.2715
     86  CB        38.5240    4.9020   15.2330 C.3    66  LYS66       0.0311
     87  CG        37.6720    5.9670   15.9150 C.3    66  LYS66       0.0038
     88  CD        37.5840    5.7350   17.4360 C.3    66  LYS66       0.0206
     89  CE        37.9870    6.9780   18.2440 C.3    66  LYS66       0.1093
     90  NZ        37.2490    7.0990   19.5470 N.3    66  LYS66      -0.1314
     91  N         39.4590    2.7650   12.9280 N.am   67  ASN67      -0.1972
     92  CA        40.5620    2.0180   12.3250 C.3    67  ASN67       0.1688
     93  C         40.4840    1.8380   10.8030 C.2    67  ASN67       0.2292
     94  O         41.3340    1.1590   10.2100 O.2    67  ASN67      -0.2864
     95  CB        40.7050    0.6500   13.0090 C.3    67  ASN67       0.1181
     96  CG        39.6960   -0.3880   12.5090 C.2    67  ASN67       0.2629
     97  OD1       38.6650   -0.0650   11.9200 O.2    67  ASN67      -0.2716
     98  ND2       40.0030   -1.6570   12.7570 N.am   67  ASN67      -0.0877
     99  N         38.1750    0.2420    9.1110 N.3    69  GLN69      -0.1245
    100  CA        37.2860   -0.8410    8.7240 C.3    69  GLN69       0.1566
    101  C         35.9010   -0.2360    8.5670 C.2    69  GLN69       0.2260
    102  O         35.6720    0.9070    8.9480 O.2    69  GLN69      -0.2867
    103  CB        37.2680   -1.9160    9.7930 C.3    69  GLN69       0.0367
    104  CG        38.5210   -2.7660    9.7780 C.3    69  GLN69       0.0905
    105  CD        38.3790   -4.0090   10.6440 C.2    69  GLN69       0.2608
    106  OE1       38.6120   -3.9560   11.8480 O.2    69  GLN69      -0.2717
    107  NE2       37.9850   -5.1310   10.0340 N.am   69  GLN69      -0.0878
    108  N         32.9120   -2.0130    9.4740 N.3    71  ASN71      -0.1240
    109  CA        31.9170   -2.7670   10.1930 C.3    71  ASN71       0.1653
    110  C         31.4540   -2.0480   11.4530 C.2    71  ASN71       0.2266
    111  O         31.2020   -2.6890   12.4640 O.2    71  ASN71      -0.2867
    112  CB        32.4700   -4.1450   10.5450 C.3    71  ASN71       0.1155
    113  CG        33.6800   -4.0660   11.4350 C.2    71  ASN71       0.2627
    114  OD1       34.5170   -3.1730   11.2920 O.2    71  ASN71      -0.2716
    115  ND2       33.7890   -5.0050   12.3640 N.am   71  ASN71      -0.0877
    116  N         31.2190    6.7180   31.0560 N.3    83  ASP83      -0.1239
    117  CA        32.6140    6.6810   30.6400 C.3    83  ASP83       0.1674
    118  C         33.5010    6.6080   31.9020 C.2    83  ASP83       0.2266
    119  O         33.2940    7.3570   32.8670 O.2    83  ASP83      -0.2867
    120  CB        32.9780    7.9420   29.8590 C.3    83  ASP83       0.1410
    121  CG        32.5820    7.8720   28.4220 C.2    83  ASP83       0.3668
    122  OD1       32.5520    6.7590   27.8620 O.co2  83  ASP83      -0.2456
    123  OD2       32.3010    8.9460   27.8500 O.co2  83  ASP83      -0.2456
    124  N         31.4450   -1.9320   16.6080 N.3   109  ALA109     -0.1245
    125  CA        31.8850   -2.7010   15.4560 C.3   109  ALA109      0.1562
    126  C         31.1930   -4.0640   15.6620 C.2   109  ALA109      0.2260
    127  O         31.1330   -4.5800   16.7910 O.2   109  ALA109     -0.2867
    128  CB        33.3930   -2.8540   15.4740 C.3   109  ALA109      0.0290
    129  N         30.4740   -8.2050   14.1760 N.3   111  GLU111     -0.1245
    130  CA        31.0650   -9.3080   13.4440 C.3   111  GLU111      0.1567
    131  C         30.3040  -10.5760   13.7410 C.2   111  GLU111      0.2260
    132  O         29.6050  -10.6610   14.7480 O.2   111  GLU111     -0.2867
    133  CB        32.4980   -9.5270   13.9080 C.3   111  GLU111      0.0388
    134  CG        33.5230   -8.7980   13.1130 C.3   111  GLU111      0.1160
    135  CD        34.9380   -9.0130   13.6430 C.2   111  GLU111      0.3649
    136  OE1       35.1140   -9.6890   14.6820 O.co2 111  GLU111     -0.2457
    137  OE2       35.8790   -8.4910   13.0200 O.co2 111  GLU111     -0.2457
    138  N         31.2280   -6.4670   18.9790 N.3   118  VAL118     -0.1231
    139  CA        32.4320   -7.0830   19.5390 C.3   118  VAL118      0.1692
    140  C         33.4300   -6.0260   19.9860 C.2   118  VAL118      0.2592
    141  O         34.3960   -6.3330   20.6890 O.2   118  VAL118     -0.2718
    142  CB        33.1530   -8.0310   18.5180 C.3   118  VAL118      0.0266
    143  CG1       32.2440   -9.1960   18.1680 C.3   118  VAL118      0.0020
    144  CG2       33.5760   -7.2670   17.2670 C.3   118  VAL118      0.0020
    145  N         33.1810   -4.7780   19.5920 N.am  119  HIS119     -0.1962
    146  CA        34.0860   -3.6890   19.9180 C.3   119  HIS119      0.1787
    147  C         33.3560   -2.3700   20.0920 C.2   119  HIS119      0.2620
    148  O         32.4070   -2.0800   19.3660 O.2   119  HIS119     -0.2715
    149  CB        35.1310   -3.5680   18.7980 C.3   119  HIS119      0.0785
    150  CG        35.7750   -2.2180   18.6910 C.ar  119  HIS119      0.0821
    151  ND1       36.8900   -1.8640   19.4190 N.ar  119  HIS119     -0.2267
    152  CD2       35.4890   -1.1540   17.9030 C.ar  119  HIS119      0.1154
    153  CE1       37.2650   -0.6430   19.0830 C.ar  119  HIS119      0.1986
    154  NE2       36.4320   -0.1910   18.1650 N.ar  119  HIS119     -0.2212
    155  N         33.7890   -1.5850   21.0740 N.am  120  PHE120     -0.1960
    156  CA        33.1950   -0.2710   21.3160 C.3   120  PHE120      0.1771
    157  C         34.1260    0.7590   20.6760 C.2   120  PHE120      0.2620
    158  O         35.2690    0.9270   21.0920 O.2   120  PHE120     -0.2715
    159  CB        33.0490    0.0100   22.8190 C.3   120  PHE120      0.0574
    160  CG        32.2030    1.2220   23.1210 C.ar  120  PHE120     -0.0200
    161  CD1       32.7580    2.4990   23.0820 C.ar  120  PHE120     -0.0042
    162  CD2       30.8500    1.0860   23.4100 C.ar  120  PHE120     -0.0042
    163  CE1       31.9770    3.6190   23.3250 C.ar  120  PHE120     -0.0003
    164  CE2       30.0610    2.2010   23.6570 C.ar  120  PHE120     -0.0003
    165  CZ        30.6260    3.4720   23.6130 C.ar  120  PHE120     -0.0000
    166  N         33.6300    1.4570   19.6630 N.am  121  ASP121     -0.1957
    167  CA        34.4740    2.4040   18.9760 C.3   121  ASP121      0.1840
    168  C         34.4960    3.8170   19.5490 C.2   121  ASP121      0.2622
    169  O         35.5640    4.3520   19.8560 O.2   121  ASP121     -0.2715
    170  CB        34.0930    2.4470   17.4900 C.3   121  ASP121      0.1450
    171  CG        35.3050    2.6650   16.5780 C.2   121  ASP121      0.3671
    172  OD1       36.3660    2.0120   16.7660 O.co2 121  ASP121     -0.2456
    173  OD2       35.1960    3.4950   15.6540 O.co2 121  ASP121     -0.2456
    174  N         33.3150    4.4050   19.6990 N.am  122  ALA122     -0.1963
    175  CA        33.1890    5.7730   20.1830 C.3   122  ALA122      0.1728
    176  C         31.7500    6.0910   20.5490 C.2   122  ALA122      0.2616
    177  O         30.8430    5.3060   20.3290 O.2   122  ALA122     -0.2715
    178  CB        33.6440    6.7400   19.0900 C.3   122  ALA122      0.0334
    179  N         31.5500    7.2560   21.1310 N.am  123  SER123     -0.1950
    180  CA        30.2160    7.7040   21.4600 C.3   123  SER123      0.1924
    181  C         30.2120    9.1200   20.8940 C.2   123  SER123      0.2314
    182  O         31.2500    9.7840   20.8750 O.2   123  SER123     -0.2863
    183  CB        29.9760    7.6840   22.9760 C.3   123  SER123      0.2116
    184  OG        30.8560    8.5550   23.6490 O.3   123  SER123     -0.2180
@<TRIPOS>BOND
     1   101   100    1
     2   101   102    2
     3   100    99    1
     4   100   103    1
     5   108   109    1
     6   104   103    1
     7   104   105    1
     8   107   105   am
     9   109   112    1
    10   109   110    1
    11    94    93    2
    12   112   113    1
    13   105   106    2
    14    93    92    1
    15    76    77    1
    16    79    78    2
    17   114   113    2
    18   113   115   am
    19   110   111    2
    20    97    96    2
    21    81    80    1
    22    77    78    1
    23    77    80    1
    24    78    82   am
    25    92    91    1
    26    92    95    1
    27    96    98   am
    28    96    95    1
    29    85    84    2
    30    91    84   am
    31   137   135   ar
    32    84    83    1
    33   134   135    1
    34   134   133    1
    35   130   131    1
    36   130   133    1
    37   130   129    1
    38    82    83    1
    39   135   136   ar
    40    83    86    1
    41   131   132    2
    42    86    87    1
    43   125   128    1
    44   125   126    1
    45   125   124    1
    46   173   171   ar
    47   126   127    2
    48    87    88    1
    49   171   172   ar
    50   171   170    1
    51   144   142    1
    52    88    89    1
    53   170   167    1
    54   152   154   ar
    55   152   150   ar
    56   154   153   ar
    57   143   142    1
    58    89    90    1
    59   142   139    1
    60   150   149    1
    61   150   151   ar
    62   149   146    1
    63   167   168    1
    64   167   166    1
    65   138   139    1
    66   153   151   ar
    67   178   175    1
    68   148   147    2
    69   139   140    1
    70   168   174   am
    71   168   169    2
    72   145   146    1
    73   145   140   am
    74   166   157   am
    75   174   175    1
    76   146   147    1
    77   140   141    2
    78     5     2    1
    79   147   155   am
    80   175   176    1
    81   177   176    2
    82   176   179   am
    83   157   158    2
    84   157   156    1
    85   182   181    2
    86   181   180    1
    87   155   156    1
    88   179   180    1
    89   156   159    1
    90   180   183    1
    91     2     1    1
    92     2     3    1
    93     3     4    2
    94    24    22   ar
    95    24    25   ar
    96    22    20   ar
    97   159   160    1
    98    25    23   ar
    99   183   184    1
   100   161   160   ar
   101   161   163   ar
   102   160   162   ar
   103    20    19    1
   104    20    21   ar
   105   163   165   ar
   106    19    16    1
   107   162   164   ar
   108    23    21   ar
   109   165   164   ar
   110    14    13    1
   111    13    12    1
   112    16    15    1
   113    16    17    1
   114    15     8   am
   115    12    11    1
   116    10    11    1
   117    10     7    1
   118    44    42   ar
   119    44    43   ar
   120    42    40   ar
   121     6     7    1
   122    17    18    2
   123    43    41   ar
   124     8     7    1
   125     8     9    2
   126    40    41   ar
   127    40    39    1
   128    34    32   am
   129    39    36    1
   130    74    73    1
   131    53    52    1
   132    73    75    1
   133    73    70    1
   134    52    51    1
   135    32    33    2
   136    32    31    1
   137    59    58    1
   138   123   121   ar
   139   122   121   ar
   140    58    60    1
   141    58    55    1
   142    57    56    2
   143    36    35    1
   144    36    37    1
   145    30    31    1
   146    30    27    1
   147    72    71    2
   148    35    28   am
   149    69    70    1
   150    69    63   am
   151   121   120    1
   152    70    71    1
   153    38    37    2
   154    67    66    2
   155    56    55    1
   156    56    61   am
   157    51    50    1
   158    28    27    1
   159    28    29    2
   160    55    54    1
   161    62    63    1
   162    62    61    1
   163    62    65    1
   164    26    27    1
   165    50    49    1
   166    63    64    2
   167    66    65    1
   168    66    68   am
   169   120   117    1
   170   117   116    1
   171   117   118    1
   172    49    46    1
   173    46    47    1
   174    46    45    1
   175    47    48    2
   176   118   119    2
