@<TRIPOS>MOLECULE
tmp/1qhfB00.pdb
 118 109 0 0 0
SMALL
GASTEIGER

@<TRIPOS>ATOM
      1  N          5.3820   13.9770  -21.6260 N.3     7  ARG7       -0.1231
      2  CA         4.1050   14.6830  -21.7840 C.3     7  ARG7        0.1694
      3  C          3.3410   13.8970  -22.8670 C.2     7  ARG7        0.2592
      4  O          3.9710   13.5160  -23.8660 O.2     7  ARG7       -0.2718
      5  CB         4.3860   16.0990  -22.3300 C.3     7  ARG7        0.0321
      6  CG         3.1300   16.9030  -22.5060 C.3     7  ARG7        0.0489
      7  CD         3.4970   18.3020  -23.1000 C.3     7  ARG7        0.2205
      8  NE         2.3020   19.0180  -23.4100 N.pl3   7  ARG7       -0.0865
      9  CZ         2.2560   20.2830  -23.8360 C.cat   7  ARG7        0.5346
     10  NH1        3.3780   20.9750  -23.9890 N.pl3   7  ARG7        0.1354
     11  NH2        1.0630   20.8090  -24.0740 N.pl3   7  ARG7        0.1354
     12  N          2.0610   13.6670  -22.7010 N.am    8  HIS8       -0.1962
     13  CA         1.3370   12.9140  -23.7340 C.3     8  HIS8        0.1787
     14  C          1.2790   13.7130  -25.0300 C.2     8  HIS8        0.2621
     15  O          1.3980   14.9210  -25.0420 O.2     8  HIS8       -0.2715
     16  CB        -0.0440   12.5470  -23.2030 C.3     8  HIS8        0.0785
     17  CG        -0.9060   13.7240  -22.9090 C.ar    8  HIS8        0.0821
     18  ND1       -1.5020   14.4770  -23.9050 N.ar    8  HIS8       -0.2267
     19  CD2       -1.2000   14.3260  -21.7390 C.ar    8  HIS8        0.1154
     20  CE1       -2.1860   15.4460  -23.3240 C.ar    8  HIS8        0.1986
     21  NE2       -2.0250   15.3830  -22.0070 N.ar    8  HIS8       -0.2212
     22  N          1.0190   12.9680  -26.1100 N.am    9  GLY9       -0.1940
     23  CA         0.9400   13.6230  -27.4100 C.3     9  GLY9        0.2014
     24  C         -0.4910   14.1380  -27.5490 C.2     9  GLY9        0.2639
     25  O         -1.3300   14.1010  -26.6540 O.2     9  GLY9       -0.2714
     26  N         -0.7630   14.6100  -28.7490 N.am   10  GLN10      -0.1963
     27  CA        -2.0220   15.2500  -29.0690 C.3    10  GLN10       0.1733
     28  C         -3.2810   14.4680  -28.7690 C.2    10  GLN10       0.2617
     29  O         -3.4370   13.2940  -29.0920 O.2    10  GLN10      -0.2715
     30  CB        -1.9190   15.5690  -30.5870 C.3    10  GLN10       0.0408
     31  CG        -3.2240   16.1660  -31.1170 C.3    10  GLN10       0.0908
     32  CD        -3.1210   16.2370  -32.6410 C.2    10  GLN10       0.2608
     33  OE1       -3.2940   15.2260  -33.3210 O.2    10  GLN10      -0.2717
     34  NE2       -2.7900   17.4270  -33.1280 N.am   10  GLN10      -0.0878
     35  N         -4.2280   15.1460  -28.1290 N.am   11  SER11      -0.1950
     36  CA        -5.5070   14.5330  -27.7640 C.3    11  SER11       0.1924
     37  C         -6.4950   14.7750  -28.9050 C.2    11  SER11       0.2314
     38  O         -6.2080   15.6090  -29.7610 O.2    11  SER11      -0.2863
     39  CB        -6.0800   15.1430  -26.4710 C.3    11  SER11       0.2116
     40  OG        -6.7570   16.3860  -26.7970 O.3    11  SER11      -0.2180
     41  N         -7.4150   18.3880  -28.8970 N.3    14  ASN14      -0.1240
     42  CA        -6.3900   19.3330  -29.3090 C.3    14  ASN14       0.1653
     43  C         -6.4820   19.4580  -30.8520 C.2    14  ASN14       0.2266
     44  O         -6.3710   20.5450  -31.3990 O.2    14  ASN14      -0.2867
     45  CB        -4.9930   18.8230  -28.9870 C.3    14  ASN14       0.1155
     46  CG        -3.9460   19.8080  -29.4650 C.2    14  ASN14       0.2627
     47  OD1       -3.7400   19.8990  -30.6760 O.2    14  ASN14      -0.2716
     48  ND2       -3.3890   20.5370  -28.5090 N.am   14  ASN14      -0.0877
     49  N        -10.1750   22.5420  -29.0120 N.3    18  LEU18      -0.1245
     50  CA       -10.9440   22.8220  -27.8090 C.3    18  LEU18       0.1561
     51  C        -10.0860   22.7060  -26.5440 C.2    18  LEU18       0.2260
     52  O         -9.2160   21.8520  -26.5300 O.2    18  LEU18      -0.2867
     53  CB       -12.0810   21.8240  -27.6410 C.3    18  LEU18       0.0270
     54  CG       -13.0400   21.6050  -28.8060 C.3    18  LEU18       0.0019
     55  CD1      -13.9920   20.4600  -28.5020 C.3    18  LEU18       0.0001
     56  CD2      -13.8530   22.8810  -29.0680 C.3    18  LEU18       0.0001
     57  N         -9.0830   21.5340  -23.0200 N.3    20  THR20      -0.1218
     58  CA        -9.4810   20.2420  -22.4450 C.3    20  THR20       0.1862
     59  C         -9.5190   20.2550  -20.9060 C.2    20  THR20       0.2287
     60  O        -10.5430   19.9890  -20.2810 O.2    20  THR20      -0.2866
     61  CB        -8.4820   19.1740  -22.9360 C.3    20  THR20       0.1770
     62  OG1       -8.5070   19.2060  -24.4110 O.3    20  THR20      -0.2211
     63  CG2       -9.0350   17.8160  -22.5490 C.3    20  THR20       0.0375
     64  N          3.0590    9.3670  -31.2640 N.3    34  GLU34      -0.1245
     65  CA         3.9960   10.0920  -30.4130 C.3    34  GLU34       0.1567
     66  C          4.2840    9.2730  -29.1450 C.2    34  GLU34       0.2260
     67  O          5.4440    9.1480  -28.7690 O.2    34  GLU34      -0.2867
     68  CB         3.4440   11.4390  -30.0110 C.3    34  GLU34       0.0388
     69  CG         3.2720   12.4060  -31.1900 C.3    34  GLU34       0.1160
     70  CD         2.7580   13.7170  -30.5940 C.2    34  GLU34       0.3649
     71  OE1        1.5340   13.8260  -30.3910 O.co2  34  GLU34      -0.2457
     72  OE2        3.6050   14.5800  -30.3050 O.co2  34  GLU34      -0.2457
     73  N         -5.6840   10.1460  -21.4920 N.3    59  ARG59      -0.1245
     74  CA        -4.6460   10.4610  -22.4820 C.3    59  ARG59       0.1563
     75  C         -3.2350   10.2450  -21.9480 C.2    59  ARG59       0.2260
     76  O         -2.3770    9.8390  -22.7060 O.2    59  ARG59      -0.2867
     77  CB        -4.8510   11.8440  -23.0790 C.3    59  ARG59       0.0307
     78  CG        -4.7580   12.9610  -22.0220 C.3    59  ARG59       0.0489
     79  CD        -5.3710   14.2040  -22.6240 C.3    59  ARG59       0.2205
     80  NE        -5.4100   15.4550  -21.9120 N.pl3  59  ARG59      -0.0865
     81  CZ        -6.3220   15.9230  -21.0670 C.cat  59  ARG59       0.5346
     82  NH1       -7.3850   15.2120  -20.6950 N.pl3  59  ARG59       0.1354
     83  NH2       -6.1430   17.1400  -20.5880 N.pl3  59  ARG59       0.1354
     84  N         -3.6090   17.4940  -15.5430 N.3    86  GLU86      -0.1245
     85  CA        -3.5180   18.7950  -16.1930 C.3    86  GLU86       0.1567
     86  C         -4.1900   19.8710  -15.3600 C.2    86  GLU86       0.2260
     87  O         -5.0400   19.6270  -14.4890 O.2    86  GLU86      -0.2867
     88  CB        -4.3340   18.6670  -17.5090 C.3    86  GLU86       0.0388
     89  CG        -4.2850   19.9050  -18.4490 C.3    86  GLU86       0.1160
     90  CD        -2.8830   20.3130  -18.8000 C.2    86  GLU86       0.3649
     91  OE1       -2.1360   20.8910  -17.9850 O.co2  86  GLU86      -0.2457
     92  OE2       -2.3980   20.0530  -19.9240 O.co2  86  GLU86      -0.2457
     93  N        -10.8670   27.3920  -28.8990 N.3    97  LYS97      -0.1245
     94  CA        -9.8000   28.3250  -28.5910 C.3    97  LYS97       0.1561
     95  C         -9.8390   29.5780  -29.4860 C.2    97  LYS97       0.2260
     96  O         -9.4680   30.6400  -28.9970 O.2    97  LYS97      -0.2867
     97  CB        -8.4420   27.6610  -28.7790 C.3    97  LYS97       0.0271
     98  CG        -8.2370   26.5260  -27.7640 C.3    97  LYS97       0.0035
     99  CD        -6.8160   25.9620  -27.8840 C.3    97  LYS97       0.0206
    100  CE        -6.8050   24.6000  -27.1970 C.3    97  LYS97       0.1093
    101  NZ        -5.4790   23.9210  -27.3650 N.3    97  LYS97      -0.1314
    102  N          5.8090   17.3870  -26.7840 N.3   207  THR207     -0.1218
    103  CA         5.0270   16.1720  -26.6310 C.3   207  THR207      0.1862
    104  C          5.7530   14.9440  -27.1320 C.2   207  THR207      0.2287
    105  O          6.4290   14.9430  -28.1580 O.2   207  THR207     -0.2866
    106  CB         3.6940   16.3140  -27.3970 C.3   207  THR207      0.1770
    107  OG1        3.9800   16.4720  -28.8120 O.3   207  THR207     -0.2211
    108  CG2        3.0080   17.5670  -26.8930 C.3   207  THR207      0.0375
    109  N          2.2690   22.3630  -33.6410 N.3   238  ALA238     -0.1231
    110  CA         0.9710   21.8880  -33.1820 C.3   238  ALA238      0.1694
    111  C          0.3170   22.9070  -32.2500 C.2   238  ALA238      0.2591
    112  O         -0.5590   22.6360  -31.4380 O.2   238  ALA238     -0.2718
    113  CB         1.0650   20.5290  -32.5060 C.3   238  ALA238      0.0304
    114  N          0.7540   24.1390  -32.3930 N.am  239  ALA239     -0.1980
    115  CA         0.4230   25.3360  -31.6580 C.3   239  ALA239      0.1597
    116  C          1.7750   25.7650  -31.0510 C.2   239  ALA239      0.2287
    117  O          2.5280   24.8740  -30.6430 O.2   239  ALA239     -0.2864
    118  CB        -0.6200   25.1930  -30.5760 C.3   239  ALA239      0.0319
@<TRIPOS>BOND
     1   109   110    1
     2    33    32    2
     3   110   113    1
     4   110   111    1
     5    34    32   am
     6    32    31    1
     7   114   111   am
     8   114   115    1
     9   111   112    2
    10   115   116    1
    11   115   118    1
    12    44    43    2
    13    64    65    1
    14    69    70    1
    15    69    68    1
    16    31    30    1
    17   116   117    2
    18    43    42    1
    19    47    46    2
    20    70    71   ar
    21    70    72   ar
    22    30    27    1
    23    65    68    1
    24    65    66    1
    25    38    37    2
    26    95    96    2
    27    95    94    1
    28    46    45    1
    29    46    48   am
    30    42    45    1
    31    42    41    1
    32    66    67    2
    33    29    28    2
    34    27    28    1
    35    27    26    1
    36    56    54    1
    37    49    50    1
    38    37    36    1
    39    93    94    1
    40   107   106    1
    41    54    55    1
    42    54    53    1
    43    97    94    1
    44    97    98    1
    45    28    35   am
    46    26    24   am
    47   105   104    2
    48    35    36    1
    49    99    98    1
    50    99   100    1
    51    50    53    1
    52    50    51    1
    53    36    39    1
    54    24    23    1
    55    24    25    2
    56    23    22    1
    57   106   108    1
    58   106   103    1
    59   101   100    1
    60   104   103    1
    61    40    39    1
    62   102   103    1
    63    51    52    2
    64    22    14   am
    65    15    14    2
    66    14    13    1
    67    62    61    1
    68    11     9    1
    69    10     9    1
    70    18    20   ar
    71    18    17   ar
    72     4     3    2
    73     9     8    2
    74    13    16    1
    75    13    12    1
    76     8     7    1
    77    20    21   ar
    78    16    17    1
    79     7     6    1
    80    77    74    1
    81    77    78    1
    82    57    58    1
    83    61    63    1
    84    61    58    1
    85    17    19   ar
    86     3    12   am
    87     3     2    1
    88    76    75    2
    89    79    78    1
    90    79    80    1
    91     6     5    1
    92    74    75    1
    93    74    73    1
    94    58    59    1
    95     5     2    1
    96    21    19   ar
    97    80    81    2
    98     2     1    1
    99    81    82    1
   100    81    83    1
   101    59    60    2
   102    92    90   ar
   103    90    89    1
   104    90    91   ar
   105    89    88    1
   106    88    85    1
   107    85    84    1
   108    85    86    1
   109    86    87    2
