@<TRIPOS>MOLECULE
tmp/1qhiB00.pdb
 162 153 0 0 0
SMALL
GASTEIGER

@<TRIPOS>ATOM
      1  N         16.7460   97.7140   38.8930 N.3    13  HIS13      -0.1241
      2  CA        15.6680   97.9310   39.8570 C.3    13  HIS13       0.1621
      3  C         14.7790   99.1120   39.3910 C.2    13  HIS13       0.2264
      4  O         15.2350   99.9850   38.6350 O.2    13  HIS13      -0.2867
      5  CB        16.2450   98.2320   41.2570 C.3    13  HIS13       0.0745
      6  CG        17.1120   99.4550   41.3170 C.ar   13  HIS13       0.0817
      7  ND1       18.4290   99.4580   40.9080 N.ar   13  HIS13      -0.2268
      8  CD2       16.8430  100.7180   41.7190 C.ar   13  HIS13       0.1154
      9  CE1       18.9300  100.6730   41.0490 C.ar   13  HIS13       0.1986
     10  NE2       17.9890  101.4550   41.5390 N.ar   13  HIS13      -0.2212
     11  N         12.9300   88.5140   46.5070 N.3    35  GLU35      -0.1245
     12  CA        14.1750   89.1590   46.8750 C.3    35  GLU35       0.1567
     13  C         14.2950   89.0180   48.3980 C.2    35  GLU35       0.2260
     14  O         13.3800   89.3660   49.1480 O.2    35  GLU35      -0.2867
     15  CB        14.1790   90.6290   46.4790 C.3    35  GLU35       0.0388
     16  CG        14.4270   90.8300   45.0180 C.3    35  GLU35       0.1160
     17  CD        14.5930   92.2730   44.6690 C.2    35  GLU35       0.3649
     18  OE1       14.0130   93.1460   45.3520 O.co2  35  GLU35      -0.2457
     19  OE2       15.3120   92.5440   43.7000 O.co2  35  GLU35      -0.2457
     20  N         18.9180   91.3640   53.7360 N.3    40  TRP40      -0.1241
     21  CA        19.5560   92.6510   53.4690 C.3    40  TRP40       0.1605
     22  C         19.3390   93.6680   54.5850 C.2    40  TRP40       0.2264
     23  O         20.2220   94.4730   54.8930 O.2    40  TRP40      -0.2867
     24  CB        19.0070   93.2310   52.1570 C.3    40  TRP40       0.0550
     25  CG        19.1920   92.3450   50.9480 C.ar   40  TRP40       0.0003
     26  CD1       20.0920   91.3390   50.8100 C.ar   40  TRP40       0.0946
     27  CD2       18.5410   92.4750   49.6670 C.ar   40  TRP40       0.0152
     28  NE1       20.0690   90.8480   49.5220 N.ar   40  TRP40      -0.2442
     29  CE2       19.1260   91.5290   48.8010 C.ar   40  TRP40       0.0810
     30  CE3       17.5270   93.3060   49.1680 C.ar   40  TRP40       0.0012
     31  CZ2       18.7340   91.3910   47.4610 C.ar   40  TRP40       0.0191
     32  CZ3       17.1410   93.1680   47.8440 C.ar   40  TRP40       0.0001
     33  CH2       17.7450   92.2190   47.0060 C.ar   40  TRP40       0.0015
     34  N         20.9790   98.1700   52.0460 N.3    49  ILE49      -0.1245
     35  CA        20.6810   99.0640   50.9460 C.3    49  ILE49       0.1561
     36  C         20.8930  100.5060   51.3790 C.2    49  ILE49       0.2260
     37  O         21.5370  101.2740   50.6810 O.2    49  ILE49      -0.2867
     38  CB        19.2720   98.8270   50.4060 C.3    49  ILE49       0.0252
     39  CG1       19.1410   97.3550   50.0160 C.3    49  ILE49       0.0019
     40  CG2       19.0220   99.6840   49.1920 C.3    49  ILE49       0.0019
     41  CD1       17.8160   97.0060   49.4660 C.3    49  ILE49       0.0001
     42  N         24.5440  101.1910   51.3450 N.3    52  ILE52      -0.1231
     43  CA        25.0840  101.3430   49.9900 C.3    52  ILE52       0.1692
     44  C         24.8870  102.7680   49.4240 C.2    52  ILE52       0.2592
     45  O         25.8490  103.4160   48.9230 O.2    52  ILE52      -0.2718
     46  CB        24.4390  100.2840   49.0330 C.3    52  ILE52       0.0266
     47  CG1       25.0450   98.9010   49.3080 C.3    52  ILE52       0.0019
     48  CG2       24.6080  100.6770   47.5780 C.3    52  ILE52       0.0020
     49  CD1       24.3260   97.7550   48.6310 C.3    52  ILE52       0.0001
     50  N         23.6630  103.2740   49.5140 N.am   53  TYR53      -0.1976
     51  CA        23.3420  104.6020   49.0050 C.3    53  TYR53       0.1639
     52  C         24.0160  105.7300   49.7450 C.2    53  TYR53       0.2290
     53  O         24.3640  106.7290   49.1450 O.2    53  TYR53      -0.2864
     54  CB        21.8350  104.8080   48.9750 C.3    53  TYR53       0.0560
     55  CG        21.2020  104.1070   47.8080 C.ar   53  TYR53      -0.0198
     56  CD1       20.5850  102.8690   47.9530 C.ar   53  TYR53      -0.0009
     57  CD2       21.2510  104.6680   46.5490 C.ar   53  TYR53      -0.0009
     58  CE1       20.0250  102.2120   46.8560 C.ar   53  TYR53       0.0417
     59  CE2       20.6970  104.0220   45.4440 C.ar   53  TYR53       0.0417
     60  CZ        20.0860  102.8030   45.6050 C.ar   53  TYR53       0.1957
     61  OH        19.5090  102.2170   44.5060 O.3    53  TYR53      -0.2866
     62  N         28.3380   94.2400   49.0120 N.3    77  GLN77      -0.1245
     63  CA        27.9450   93.3730   47.9090 C.3    77  GLN77       0.1566
     64  C         27.8840   91.9220   48.3700 C.2    77  GLN77       0.2260
     65  O         27.0150   91.1520   47.9210 O.2    77  GLN77      -0.2867
     66  CB        28.9140   93.4810   46.7160 C.3    77  GLN77       0.0367
     67  CG        29.0210   94.8510   46.1060 C.3    77  GLN77       0.0905
     68  CD        27.6810   95.4660   45.8100 C.2    77  GLN77       0.2608
     69  OE1       26.8270   94.8560   45.1540 O.2    77  GLN77      -0.2717
     70  NE2       27.4770   96.6890   46.2980 N.am   77  GLN77      -0.0878
     71  N         24.5860   91.2440   50.0810 N.3    80  MET80      -0.1245
     72  CA        23.4900   91.2360   49.1210 C.3    80  MET80       0.1570
     73  C         23.3450   89.9160   48.3520 C.2    80  MET80       0.2261
     74  O         22.2220   89.4130   48.1460 O.2    80  MET80      -0.2867
     75  CB        23.6460   92.4010   48.1390 C.3    80  MET80       0.0387
     76  CG        23.6020   93.8260   48.7470 C.3    80  MET80       0.0595
     77  SD        21.9730   94.4220   49.3540 S.3    80  MET80      -0.1393
     78  CE        21.1090   94.7500   47.8130 C.3    80  MET80       0.0692
     79  N         21.4060   84.3280   47.3940 N.3    84  TYR84      -0.1241
     80  CA        21.4250   83.8980   45.9910 C.3    84  TYR84       0.1605
     81  C         22.3780   82.7230   45.7750 C.2    84  TYR84       0.2264
     82  O         22.0420   81.7660   45.0750 O.2    84  TYR84      -0.2867
     83  CB        21.7810   85.0810   45.0830 C.3    84  TYR84       0.0534
     84  CG        20.6370   86.0660   44.9220 C.ar   84  TYR84      -0.0201
     85  CD1       20.5180   87.1890   45.7450 C.ar   84  TYR84      -0.0009
     86  CD2       19.6600   85.8580   43.9550 C.ar   84  TYR84      -0.0009
     87  CE1       19.4380   88.0810   45.6000 C.ar   84  TYR84       0.0417
     88  CE2       18.5910   86.7280   43.7980 C.ar   84  TYR84       0.0417
     89  CZ        18.4790   87.8330   44.6170 C.ar   84  TYR84       0.1957
     90  OH        17.4040   88.6680   44.4420 O.3    84  TYR84      -0.2866
     91  N         15.4270   87.6580   40.3940 N.3   110  ARG110     -0.1245
     92  CA        16.8420   87.8710   40.0460 C.3   110  ARG110      0.1563
     93  C         17.6670   86.5740   40.0280 C.2   110  ARG110      0.2260
     94  O         17.2480   85.5320   40.5600 O.2   110  ARG110     -0.2867
     95  CB        17.5040   88.9480   40.9210 C.3   110  ARG110      0.0307
     96  CG        16.6540   90.1910   41.0430 C.3   110  ARG110      0.0489
     97  CD        17.3370   91.3510   41.7170 C.3   110  ARG110      0.2205
     98  NE        18.0690   92.0830   40.7110 N.pl3 110  ARG110     -0.0865
     99  CZ        17.8030   93.3130   40.2930 C.cat 110  ARG110      0.5346
    100  NH1       16.8100   94.0300   40.7750 N.pl3 110  ARG110      0.1354
    101  NH2       18.5580   93.8100   39.3510 N.pl3 110  ARG110      0.1354
    102  N         23.2470   88.9220   39.1260 N.3   114  ALA114     -0.1231
    103  CA        22.8930   90.3070   39.4800 C.3   114  ALA114      0.1694
    104  C         23.7950   90.7410   40.6400 C.2   114  ALA114      0.2591
    105  O         24.2340   91.8920   40.7050 O.2   114  ALA114     -0.2718
    106  CB        21.4330   90.4090   39.9110 C.3   114  ALA114      0.0304
    107  N         24.0810   89.7940   41.5280 N.am  115  ALA115     -0.1980
    108  CA        24.9140   90.0120   42.7210 C.3   115  ALA115      0.1597
    109  C         26.4010   89.8230   42.5070 C.2   115  ALA115      0.2287
    110  O         27.2140   90.4320   43.2060 O.2   115  ALA115     -0.2864
    111  CB        24.4570   89.0740   43.8590 C.3   115  ALA115      0.0319
    112  N         25.5510   94.3790   39.5540 N.3   119  TYR119     -0.1241
    113  CA        25.6360   95.5120   40.4750 C.3   119  TYR119      0.1605
    114  C         27.0870   95.8720   40.7900 C.2   119  TYR119      0.2264
    115  O         27.4380   97.0740   40.9030 O.2   119  TYR119     -0.2867
    116  CB        24.7520   95.3260   41.7270 C.3   119  TYR119      0.0534
    117  CG        23.3190   95.7680   41.4690 C.ar  119  TYR119     -0.0201
    118  CD1       22.3830   94.8830   40.9400 C.ar  119  TYR119     -0.0009
    119  CD2       22.9330   97.1020   41.6530 C.ar  119  TYR119     -0.0009
    120  CE1       21.1160   95.2980   40.5890 C.ar  119  TYR119      0.0417
    121  CE2       21.6480   97.5410   41.2980 C.ar  119  TYR119      0.0417
    122  CZ        20.7510   96.6270   40.7630 C.ar  119  TYR119      0.1957
    123  OH        19.4990   97.0250   40.3460 O.3   119  TYR119     -0.2866
    124  N         28.6910   99.6050   40.1970 N.3   123  ARG123     -0.1245
    125  CA        29.3840  100.3500   41.2480 C.3   123  ARG123      0.1563
    126  C         30.8130  100.6740   40.8410 C.2   123  ARG123      0.2260
    127  O         31.3550  101.6700   41.2770 O.2   123  ARG123     -0.2867
    128  CB        29.3370   99.6160   42.5770 C.3   123  ARG123      0.0307
    129  CG        27.9600   99.6610   43.2230 C.3   123  ARG123      0.0489
    130  CD        27.5680  101.0570   43.5920 C.3   123  ARG123      0.2205
    131  NE        26.2070  101.1060   44.1090 N.pl3 123  ARG123     -0.0865
    132  CZ        25.5530  102.2320   44.3660 C.cat 123  ARG123      0.5346
    133  NH1       26.1410  103.3960   44.1720 N.pl3 123  ARG123      0.1354
    134  NH2       24.2710  102.2030   44.7160 N.pl3 123  ARG123      0.1354
    135  N         13.4460  102.3650   47.5150 N.3   169  ARG169     -0.1245
    136  CA        13.7510  101.2350   48.3960 C.3   169  ARG169      0.1563
    137  C         14.1410  101.8120   49.7450 C.2   169  ARG169      0.2260
    138  O         14.7290  102.9080   49.8060 O.2   169  ARG169     -0.2867
    139  CB        14.9330  100.4390   47.8250 C.3   169  ARG169      0.0307
    140  CG        15.0420   98.9970   48.2810 C.3   169  ARG169      0.0489
    141  CD        13.7690   98.2080   47.9830 C.3   169  ARG169      0.2205
    142  NE        13.4580   98.1330   46.5600 N.pl3 169  ARG169     -0.0865
    143  CZ        13.4570   97.0090   45.8490 C.cat 169  ARG169      0.5346
    144  NH1       13.7570   95.8450   46.4260 N.pl3 169  ARG169      0.1354
    145  NH2       13.1210   97.0480   44.5620 N.pl3 169  ARG169      0.1354
    146  N         17.2040  103.7080   49.9460 N.3   172  GLU172     -0.1245
    147  CA        17.5310  104.1870   48.6150 C.3   172  GLU172      0.1567
    148  C         17.3350  105.6960   48.4210 C.2   172  GLU172      0.2260
    149  O         16.3520  106.2740   48.8900 O.2   172  GLU172     -0.2867
    150  CB        16.7150  103.3980   47.5860 C.3   172  GLU172      0.0388
    151  CG        16.8800  103.8720   46.1520 C.3   172  GLU172      0.1160
    152  CD        16.5790  102.7950   45.1250 C.2   172  GLU172      0.3649
    153  OE1       16.9230  103.0160   43.9450 O.co2 172  GLU172     -0.2457
    154  OE2       16.0390  101.7270   45.4910 O.co2 172  GLU172     -0.2457
    155  N         23.6840  106.3080   38.9800 N.3   178  MET178     -0.1245
    156  CA        23.6630  104.8780   39.3010 C.3   178  MET178      0.1570
    157  C         22.6040  104.1870   38.4460 C.2   178  MET178      0.2261
    158  O         22.8370  103.0720   37.9520 O.2   178  MET178     -0.2867
    159  CB        23.3880  104.6660   40.8050 C.3   178  MET178      0.0387
    160  CG        23.3340  103.2200   41.2760 C.3   178  MET178      0.0595
    161  SD        24.7580  102.2040   40.8300 S.3   178  MET178     -0.1393
    162  CE        24.0960  100.5590   41.0830 C.3   178  MET178      0.0692
@<TRIPOS>BOND
     1   158   157    2
     2   157   156    1
     3     4     3    2
     4     1     2    1
     5   155   156    1
     6   102   103    1
     7   156   159    1
     8   101    99    1
     9     3     2    1
    10   103   106    1
    11   103   104    1
    12   112   113    1
    13     2     5    1
    14    93    92    1
    15    93    94    2
    16    92    91    1
    17    92    95    1
    18   124   125    1
    19    99    98    2
    20    99   100    1
    21   123   122    1
    22   113   114    1
    23   113   116    1
    24   120   122   ar
    25   120   118   ar
    26   104   105    2
    27   104   107   am
    28    98    97    1
    29   122   121   ar
    30   114   115    2
    31   159   160    1
    32   161   162    1
    33   161   160    1
    34   126   125    1
    35   126   127    2
    36     7     9   ar
    37     7     6   ar
    38    95    96    1
    39   118   117   ar
    40    96    97    1
    41     9    10   ar
    42   125   128    1
    43     5     6    1
    44   121   119   ar
    45     6     8   ar
    46   117   119   ar
    47   117   116    1
    48   107   108    1
    49    10     8   ar
    50   109   108    1
    51   109   110    2
    52   128   129    1
    53   108   111    1
    54   129   130    1
    55   130   131    1
    56    19    17   ar
    57    88    86   ar
    58    88    89   ar
    59   153   152   ar
    60    86    84   ar
    61   131   132    2
    62   133   132    1
    63   132   134    1
    64    90    89    1
    65    61    60    1
    66   145   143    1
    67    89    87   ar
    68    17    16    1
    69    17    18   ar
    70    84    83    1
    71    84    85   ar
    72    16    15    1
    73    82    81    2
    74    83    80    1
    75   152   154   ar
    76   152   151    1
    77    69    68    2
    78    59    60   ar
    79    59    57   ar
    80    87    85   ar
    81    60    58   ar
    82    81    80    1
    83    68    67    1
    84    68    70   am
    85   143   144    1
    86   143   142    2
    87    80    79    1
    88    67    66    1
    89   151   150    1
    90    15    12    1
    91    11    12    1
    92    57    55   ar
    93   142   141    1
    94    66    63    1
    95    58    56   ar
    96    12    13    1
    97    33    31   ar
    98    33    32   ar
    99    31    29   ar
   100   135   136    1
   101    48    46    1
   102   150   147    1
   103    55    56   ar
   104    55    54    1
   105    78    77    1
   106   139   140    1
   107   139   136    1
   108    32    30   ar
   109    63    64    1
   110    63    62    1
   111    65    64    2
   112   141   140    1
   113    75    76    1
   114    75    72    1
   115    74    73    2
   116    73    72    1
   117   136   137    1
   118    13    14    2
   119   148   147    1
   120   148   149    2
   121   147   146    1
   122    49    47    1
   123    76    77    1
   124    29    28   ar
   125    29    27   ar
   126    45    44    2
   127    54    51    1
   128    51    50    1
   129    51    52    1
   130    46    47    1
   131    46    43    1
   132    72    71    1
   133    53    52    2
   134    30    27   ar
   135    40    38    1
   136    44    50   am
   137    44    43    1
   138    41    39    1
   139    28    26   ar
   140    27    25   ar
   141   137   138    2
   142    43    42    1
   143    39    38    1
   144    38    35    1
   145    37    36    2
   146    26    25   ar
   147    35    36    1
   148    35    34    1
   149    25    24    1
   150    24    21    1
   151    21    20    1
   152    21    22    1
   153    22    23    2
