@<TRIPOS>MOLECULE
tmp/1qhjA08.pdb
 124 115 0 0 0
SMALL
GASTEIGER

@<TRIPOS>ATOM
      1  N         24.4180   25.5360    1.8440 N.3    15  LEU15      -0.1245
      2  CA        24.7090   26.1470    3.1320 C.3    15  LEU15       0.1561
      3  C         23.4710   26.3140    4.0130 C.2    15  LEU15       0.2260
      4  O         23.5480   26.1360    5.2290 O.2    15  LEU15      -0.2867
      5  CB        25.4090   27.4920    2.9270 C.3    15  LEU15       0.0270
      6  CG        26.8100   27.3660    2.3080 C.3    15  LEU15       0.0019
      7  CD1       27.3830   28.7390    2.0160 C.3    15  LEU15       0.0001
      8  CD2       27.7230   26.6080    3.2660 C.3    15  LEU15       0.0001
      9  N         22.5300   22.7450    5.2430 N.3    18  LEU18      -0.1231
     10  CA        23.4660   22.2810    6.2600 C.3    18  LEU18       0.1693
     11  C         23.1950   23.0110    7.5750 C.2    18  LEU18       0.2592
     12  O         23.2160   22.4090    8.6490 O.2    18  LEU18      -0.2718
     13  CB        24.9030   22.5380    5.7960 C.3    18  LEU18       0.0284
     14  CG        25.3660   21.7340    4.5750 C.3    18  LEU18       0.0019
     15  CD1       26.7410   22.2190    4.1270 C.3    18  LEU18       0.0001
     16  CD2       25.4130   20.2550    4.9250 C.3    18  LEU18       0.0001
     17  N         22.9410   24.3130    7.4830 N.am   19  GLY19      -0.1957
     18  CA        22.6600   25.0910    8.6780 C.3    19  GLY19       0.1869
     19  C         21.4070   24.5930    9.3740 C.2    19  GLY19       0.2309
     20  O         21.3710   24.4610   10.5990 O.2    19  GLY19      -0.2863
     21  N         22.1710   21.3290   11.1050 N.3    22  TYR22      -0.1227
     22  CA        22.9800   21.5440   12.2960 C.3    22  TYR22       0.1736
     23  C         22.1090   22.0450   13.4490 C.2    22  TYR22       0.2595
     24  O         22.1830   21.5170   14.5590 O.2    22  TYR22      -0.2718
     25  CB        24.1090   22.5430   12.0320 C.3    22  TYR22       0.0548
     26  CG        24.9270   22.8190   13.2730 C.ar   22  TYR22      -0.0200
     27  CD1       25.6670   21.8030   13.8830 C.ar   22  TYR22      -0.0009
     28  CD2       24.9040   24.0690   13.8820 C.ar   22  TYR22      -0.0009
     29  CE1       26.3600   22.0270   15.0750 C.ar   22  TYR22       0.0417
     30  CE2       25.5900   24.3030   15.0740 C.ar   22  TYR22       0.0417
     31  CZ        26.3120   23.2790   15.6630 C.ar   22  TYR22       0.1957
     32  OH        26.9730   23.5080   16.8460 O.3    22  TYR22      -0.2866
     33  N         21.2730   23.0520   13.1890 N.am   23  PHE23      -0.1976
     34  CA        20.4060   23.5890   14.2400 C.3    23  PHE23       0.1639
     35  C         19.4060   22.5460   14.7300 C.2    23  PHE23       0.2290
     36  O         19.1090   22.4760   15.9250 O.2    23  PHE23      -0.2864
     37  CB        19.6530   24.8400   13.7560 C.3    23  PHE23       0.0560
     38  CG        20.5490   26.0100   13.4320 C.ar   23  PHE23      -0.0200
     39  CD1       21.8080   26.1310   14.0170 C.ar   23  PHE23      -0.0042
     40  CD2       20.1250   27.0010   12.5500 C.ar   23  PHE23      -0.0042
     41  CE1       22.6310   27.2250   13.7270 C.ar   23  PHE23      -0.0003
     42  CE2       20.9390   28.0990   12.2550 C.ar   23  PHE23      -0.0003
     43  CZ        22.1920   28.2100   12.8410 C.ar   23  PHE23      -0.0000
     44  N         25.0070   42.8990   14.3350 N.3   173  VAL173     -0.1245
     45  CA        25.1090   42.0300   13.1710 C.3   173  VAL173      0.1561
     46  C         23.9320   42.2940   12.2380 C.2   173  VAL173      0.2260
     47  O         24.0930   42.3850   11.0230 O.2   173  VAL173     -0.2867
     48  CB        25.0840   40.5400   13.5850 C.3   173  VAL173      0.0252
     49  CG1       24.8730   39.6600   12.3590 C.3   173  VAL173      0.0019
     50  CG2       26.3900   40.1730   14.2740 C.3   173  VAL173      0.0019
     51  N         24.3120   43.8560    8.3710 N.3   177  LEU177     -0.1245
     52  CA        23.9110   43.0020    7.2550 C.3   177  LEU177      0.1561
     53  C         22.6500   43.4740    6.5280 C.2   177  LEU177      0.2260
     54  O         22.6270   43.5450    5.2940 O.2   177  LEU177     -0.2867
     55  CB        23.7160   41.5620    7.7460 C.3   177  LEU177      0.0270
     56  CG        24.9790   40.8760    8.2750 C.3   177  LEU177      0.0019
     57  CD1       24.6460   39.4590    8.7170 C.3   177  LEU177      0.0001
     58  CD2       26.0480   40.8690    7.1880 C.3   177  LEU177      0.0001
     59  N         26.3470   38.3120   -3.8650 N.3   203  LEU203     -0.1245
     60  CA        26.2230   39.2230   -2.7290 C.3   203  LEU203      0.1561
     61  C         25.0810   38.8440   -1.7960 C.2   203  LEU203      0.2260
     62  O         25.2640   38.7900   -0.5800 O.2   203  LEU203     -0.2867
     63  CB        26.0310   40.6610   -3.2210 C.3   203  LEU203      0.0270
     64  CG        27.1950   41.2390   -4.0370 C.3   203  LEU203      0.0019
     65  CD1       26.8620   42.6510   -4.4990 C.3   203  LEU203      0.0001
     66  CD2       28.4630   41.2370   -3.1930 C.3   203  LEU203      0.0001
     67  N         25.9330   35.6770    0.2310 N.3   206  VAL206     -0.1245
     68  CA        26.8210   35.9210    1.3630 C.3   206  VAL206      0.1561
     69  C         26.0330   36.5760    2.4900 C.2   206  VAL206      0.2260
     70  O         26.1320   36.1670    3.6470 O.2   206  VAL206     -0.2867
     71  CB        28.0150   36.8290    0.9730 C.3   206  VAL206      0.0252
     72  CG1       28.8330   37.1860    2.2150 C.3   206  VAL206      0.0019
     73  CG2       28.8980   36.1070   -0.0330 C.3   206  VAL206      0.0019
     74  N         23.3220   33.9190    4.0760 N.3   209  VAL209     -0.1231
     75  CA        23.9310   32.9090    4.9320 C.3   209  VAL209      0.1692
     76  C         24.4180   33.5350    6.2410 C.2   209  VAL209      0.2592
     77  O         24.2510   32.9530    7.3180 O.2   209  VAL209     -0.2718
     78  CB        25.1070   32.1960    4.2120 C.3   209  VAL209      0.0266
     79  CG1       25.7880   31.2150    5.1650 C.3   209  VAL209      0.0020
     80  CG2       24.5790   31.4290    2.9830 C.3   209  VAL209      0.0020
     81  N         25.0110   34.7220    6.1590 N.am  210  SER210     -0.1952
     82  CA        25.5060   35.3870    7.3700 C.3   210  SER210      0.1924
     83  C         24.3680   35.8130    8.2850 C.2   210  SER210      0.2314
     84  O         24.4280   35.6280    9.5050 O.2   210  SER210     -0.2863
     85  CB        26.3350   36.6280    7.0160 C.3   210  SER210      0.2116
     86  OG        27.4830   36.2870    6.2650 O.3   210  SER210     -0.2180
     87  N         22.3900   31.7980    9.0170 N.3   213  VAL213     -0.1231
     88  CA        23.2230   30.7810    9.6500 C.3   213  VAL213      0.1692
     89  C         24.2080   31.4150   10.6280 C.2   213  VAL213      0.2592
     90  O         24.3440   30.9540   11.7600 O.2   213  VAL213     -0.2718
     91  CB        23.9990   29.9660    8.5930 C.3   213  VAL213      0.0266
     92  CG1       24.8280   28.8840    9.2710 C.3   213  VAL213      0.0020
     93  CG2       23.0200   29.3420    7.6050 C.3   213  VAL213      0.0020
     94  N         24.8900   32.4720   10.1950 N.am  214  GLY214     -0.1957
     95  CA        25.8380   33.1420   11.0730 C.3   214  GLY214      0.1869
     96  C         25.1320   33.6710   12.3080 C.2   214  GLY214      0.2309
     97  O         25.5690   33.4510   13.4450 O.2   214  GLY214     -0.2863
     98  N         24.1010   30.8170   14.6190 N.3   217  LEU217     -0.1231
     99  CA        25.2220   30.2170   15.3410 C.3   217  LEU217      0.1693
    100  C         25.5560   31.0150   16.5980 C.2   217  LEU217      0.2591
    101  O         25.7950   30.4430   17.6670 O.2   217  LEU217     -0.2718
    102  CB        26.4480   30.1300   14.4260 C.3   217  LEU217      0.0284
    103  CG        26.3590   29.0410   13.3520 C.3   217  LEU217      0.0019
    104  CD1       27.4690   29.2130   12.3230 C.3   217  LEU217      0.0001
    105  CD2       26.4500   27.6710   14.0260 C.3   217  LEU217      0.0001
    106  N         25.5610   32.3360   16.4650 N.am  218  ILE218     -0.1980
    107  CA        25.8520   33.2320   17.5820 C.3   218  ILE218      0.1595
    108  C         24.7870   33.1020   18.6670 C.2   218  ILE218      0.2287
    109  O         25.0980   32.9730   19.8520 O.2   218  ILE218     -0.2864
    110  CB        25.8930   34.7040   17.1130 C.3   218  ILE218      0.0276
    111  CG1       27.0390   34.8990   16.1220 C.3   218  ILE218      0.0022
    112  CG2       26.0500   35.6380   18.3100 C.3   218  ILE218      0.0022
    113  CD1       27.0900   36.2860   15.5070 C.3   218  ILE218      0.0001
    114  N         24.5170   29.4790   20.4370 N.3   221  ARG221     -0.1245
    115  CA        25.7180   29.0990   21.1780 C.3   221  ARG221      0.1563
    116  C         25.7990   29.9170   22.4580 C.2   221  ARG221      0.2260
    117  O         26.6830   29.7050   23.2920 O.2   221  ARG221     -0.2867
    118  CB        26.9710   29.3460   20.3380 C.3   221  ARG221      0.0307
    119  CG        27.3040   28.2250   19.3760 C.3   221  ARG221      0.0489
    120  CD        28.4370   28.6120   18.4320 C.3   221  ARG221      0.2205
    121  NE        29.6270   29.1070   19.1270 N.pl3 221  ARG221     -0.0865
    122  CZ        30.3370   28.4050   20.0060 C.cat 221  ARG221      0.5346
    123  NH1       29.9850   27.1630   20.3160 N.pl3 221  ARG221      0.1354
    124  NH2       31.4130   28.9440   20.5660 N.pl3 221  ARG221      0.1354
@<TRIPOS>BOND
     1    65    64    1
     2    64    63    1
     3    64    66    1
     4    59    60    1
     5    63    60    1
     6    60    61    1
     7    61    62    2
     8    73    71    1
     9    67    68    1
    10    71    68    1
    11    71    72    1
    12    68    69    1
    13     1     2    1
    14     7     6    1
    15     6     5    1
    16     6     8    1
    17    69    70    2
    18     5     2    1
    19    80    78    1
    20     2     3    1
    21     3     4    2
    22    74    75    1
    23    15    14    1
    24    78    75    1
    25    78    79    1
    26    14    16    1
    27    14    13    1
    28    75    76    1
    29     9    10    1
    30    54    53    2
    31    13    10    1
    32    81    76   am
    33    81    82    1
    34    76    77    2
    35    10    11    1
    36    86    85    1
    37    53    52    1
    38    85    82    1
    39    58    56    1
    40    52    55    1
    41    52    51    1
    42    82    83    1
    43    17    11   am
    44    17    18    1
    45    11    12    2
    46    93    91    1
    47    55    56    1
    48    56    57    1
    49    83    84    2
    50    91    92    1
    51    91    88    1
    52    18    19    1
    53    87    88    1
    54    19    20    2
    55    88    89    1
    56    94    89   am
    57    94    95    1
    58    89    90    2
    59    47    46    2
    60    95    96    1
    61    21    22    1
    62    25    22    1
    63    25    26    1
    64    46    45    1
    65    42    40   ar
    66    42    43   ar
    67    22    23    1
    68    96    97    2
    69   104   103    1
    70    49    48    1
    71    40    38   ar
    72    43    41   ar
    73    45    48    1
    74    45    44    1
    75    33    23   am
    76    33    34    1
    77    26    28   ar
    78    26    27   ar
    79   103   105    1
    80   103   102    1
    81    38    37    1
    82    38    39   ar
    83    23    24    2
    84    48    50    1
    85    41    39   ar
    86    37    34    1
    87    28    30   ar
    88    27    29   ar
    89    34    35    1
    90   102    99    1
    91    98    99    1
    92    35    36    2
    93    30    31   ar
    94    29    31   ar
    95    99   100    1
    96   113   111    1
    97    31    32    1
    98   111   110    1
    99   106   100   am
   100   106   107    1
   101   100   101    2
   102   110   107    1
   103   110   112    1
   104   107   108    1
   105   120   121    1
   106   120   119    1
   107   108   109    2
   108   121   122    2
   109   119   118    1
   110   122   123    1
   111   122   124    1
   112   118   115    1
   113   114   115    1
   114   115   116    1
   115   116   117    2
