@<TRIPOS>MOLECULE
tmp/1qhjA03.pdb
 96 93 0 0 0
SMALL
GASTEIGER

@<TRIPOS>ATOM
      1  N         10.4410   51.7580  -14.9060 N.3   127  TYR127     -0.1227
      2  CA        11.7560   51.9480  -14.2860 C.3   127  TYR127      0.1736
      3  C         11.8370   52.9420  -13.1270 C.2   127  TYR127      0.2596
      4  O         12.2260   52.5670  -12.0220 O.2   127  TYR127     -0.2718
      5  CB        12.7840   52.3460  -15.3490 C.3   127  TYR127      0.0548
      6  CG        14.2190   52.3570  -14.8550 C.ar  127  TYR127     -0.0200
      7  CD1       14.8600   51.1730  -14.4880 C.ar  127  TYR127     -0.0009
      8  CD2       14.9410   53.5490  -14.7730 C.ar  127  TYR127     -0.0009
      9  CE1       16.1930   51.1750  -14.0500 C.ar  127  TYR127      0.0417
     10  CE2       16.2680   53.5630  -14.3390 C.ar  127  TYR127      0.0417
     11  CZ        16.8870   52.3730  -13.9810 C.ar  127  TYR127      0.1957
     12  OH        18.2000   52.3810  -13.5620 O.3   127  TYR127     -0.2866
     13  N         11.4850   54.2010  -13.3720 N.am  128  SER128     -0.1952
     14  CA        11.5540   55.2180  -12.3250 C.3   128  SER128      0.1924
     15  C         10.7340   54.8580  -11.0850 C.2   128  SER128      0.2314
     16  O         11.1350   55.1680   -9.9650 O.2   128  SER128     -0.2863
     17  CB        11.0940   56.5750  -12.8620 C.3   128  SER128      0.2116
     18  OG         9.6970   56.5870  -13.0970 O.3   128  SER128     -0.2180
     19  N         12.2200   52.6930   -8.0350 N.3   131  PHE131     -0.1227
     20  CA        12.9690   53.3690   -6.9900 C.3   131  PHE131      0.1736
     21  C         12.0920   54.0480   -5.9480 C.2   131  PHE131      0.2595
     22  O         12.5490   54.3200   -4.8390 O.2   131  PHE131     -0.2718
     23  CB        13.9400   54.3590   -7.6270 C.3   131  PHE131      0.0547
     24  CG        14.9300   53.7000   -8.5410 C.ar  131  PHE131     -0.0202
     25  CD1       15.9530   52.9100   -8.0220 C.ar  131  PHE131     -0.0042
     26  CD2       14.8030   53.8100   -9.9200 C.ar  131  PHE131     -0.0042
     27  CE1       16.8320   52.2340   -8.8670 C.ar  131  PHE131     -0.0003
     28  CE2       15.6740   53.1410  -10.7700 C.ar  131  PHE131     -0.0003
     29  CZ        16.6900   52.3490  -10.2410 C.ar  131  PHE131     -0.0000
     30  N         10.8380   54.3180   -6.3000 N.am  132  VAL132     -0.1980
     31  CA         9.9100   54.9180   -5.3500 C.3   132  VAL132      0.1595
     32  C          9.6220   53.8430   -4.3010 C.2   132  VAL132      0.2287
     33  O          9.6260   54.1050   -3.1010 O.2   132  VAL132     -0.2864
     34  CB         8.5850   55.3340   -6.0310 C.3   132  VAL132      0.0276
     35  CG1        7.5770   55.7800   -4.9780 C.3   132  VAL132      0.0022
     36  CG2        8.8410   56.4740   -7.0140 C.3   132  VAL132      0.0022
     37  N         11.5220   51.3260   -3.6570 N.3   134  TRP134     -0.1227
     38  CA        12.7850   51.0990   -2.9610 C.3   134  TRP134      0.1737
     39  C         12.8970   52.0700   -1.7810 C.2   134  TRP134      0.2595
     40  O         13.2890   51.6870   -0.6780 O.2   134  TRP134     -0.2718
     41  CB        13.9590   51.3280   -3.9180 C.3   134  TRP134      0.0564
     42  CG        15.3120   51.1750   -3.2730 C.ar  134  TRP134      0.0003
     43  CD1       16.0370   50.0320   -3.1550 C.ar  134  TRP134      0.0946
     44  CD2       16.0880   52.2070   -2.6470 C.ar  134  TRP134      0.0152
     45  NE1       17.2210   50.2780   -2.4940 N.ar  134  TRP134     -0.2442
     46  CE2       17.2760   51.6080   -2.1710 C.ar  134  TRP134      0.0810
     47  CE3       15.8940   53.5820   -2.4460 C.ar  134  TRP134      0.0012
     48  CZ2       18.2680   52.3340   -1.5010 C.ar  134  TRP134      0.0191
     49  CZ3       16.8810   54.3070   -1.7770 C.ar  134  TRP134      0.0001
     50  CH2       18.0530   53.6800   -1.3140 C.ar  134  TRP134      0.0015
     51  N         12.5460   53.3300   -2.0190 N.am  135  ALA135     -0.1966
     52  CA        12.6150   54.3550   -0.9780 C.3   135  ALA135      0.1728
     53  C         11.6710   54.0460    0.1830 C.2   135  ALA135      0.2616
     54  O         12.0620   54.1490    1.3470 O.2   135  ALA135     -0.2715
     55  CB        12.2870   55.7270   -1.5710 C.3   135  ALA135      0.0334
     56  N         10.4330   53.6710   -0.1390 N.am  136  ILE136     -0.1977
     57  CA         9.4340   53.3390    0.8770 C.3   136  ILE136      0.1596
     58  C          9.8930   52.1300    1.6930 C.2   136  ILE136      0.2287
     59  O          9.7720   52.1080    2.9170 O.2   136  ILE136     -0.2864
     60  CB         8.0570   53.0240    0.2300 C.3   136  ILE136      0.0276
     61  CG1        7.4380   54.3040   -0.3360 C.3   136  ILE136      0.0022
     62  CG2        7.1170   52.4070    1.2620 C.3   136  ILE136      0.0022
     63  CD1        6.2450   54.0590   -1.2330 C.3   136  ILE136      0.0001
     64  N         12.9670   51.1310    2.1040 N.3   138  THR138     -0.1203
     65  CA        14.1220   51.5410    2.8900 C.3   138  THR138      0.1994
     66  C         13.6670   52.3090    4.1310 C.2   138  THR138      0.2617
     67  O         14.2410   52.1460    5.2090 O.2   138  THR138     -0.2717
     68  CB        15.0970   52.3920    2.0420 C.3   138  THR138      0.1784
     69  OG1       15.6490   51.5710    1.0030 O.3   138  THR138     -0.2211
     70  CG2       16.2450   52.9340    2.9010 C.3   138  THR138      0.0376
     71  N         12.6280   53.1300    3.9860 N.am  139  ALA139     -0.1979
     72  CA        12.1100   53.8860    5.1220 C.3   139  ALA139      0.1597
     73  C         11.6140   52.9020    6.1820 C.2   139  ALA139      0.2287
     74  O         11.8130   53.1090    7.3800 O.2   139  ALA139     -0.2864
     75  CB        10.9680   54.8170    4.6810 C.3   139  ALA139      0.0319
     76  N         14.5680   51.4820    7.9720 N.3   142  LEU142     -0.1245
     77  CA        15.1150   52.4420    8.9300 C.3   142  LEU142      0.1561
     78  C         14.2830   52.4670   10.2070 C.2   142  LEU142      0.2260
     79  O         14.8180   52.6330   11.3050 O.2   142  LEU142     -0.2867
     80  CB        15.1750   53.8330    8.3010 C.3   142  LEU142      0.0270
     81  CG        16.1950   53.9430    7.1610 C.3   142  LEU142      0.0019
     82  CD1       16.0570   55.2790    6.4620 C.3   142  LEU142      0.0001
     83  CD2       17.6000   53.7650    7.7180 C.3   142  LEU142      0.0001
     84  N         19.7430   48.2340   -5.1170 N.3   186  LEU186     -0.1245
     85  CA        19.8820   49.4730   -5.8700 C.3   186  LEU186      0.1561
     86  C         20.9110   49.3760   -6.9990 C.2   186  LEU186      0.2260
     87  O         20.6900   49.8970   -8.0980 O.2   186  LEU186     -0.2867
     88  CB        20.2520   50.6050   -4.9050 C.3   186  LEU186      0.0270
     89  CG        20.1630   52.0450   -5.4090 C.3   186  LEU186      0.0019
     90  CD1       18.7170   52.3810   -5.7750 C.3   186  LEU186      0.0001
     91  CD2       20.6660   52.9830   -4.3260 C.3   186  LEU186      0.0001
     92  N         19.4540   49.9110  -10.6990 N.3   192  ALA192     -0.1245
     93  CA        20.1160   50.5950  -11.8070 C.3   192  ALA192      0.1562
     94  C         20.9480   49.6740  -12.6940 C.2   192  ALA192      0.2260
     95  O         21.4460   50.0950  -13.7400 O.2   192  ALA192     -0.2867
     96  CB        20.9810   51.7320  -11.2680 C.3   192  ALA192      0.0290
@<TRIPOS>BOND
     1     5     6    1
     2     5     2    1
     3     1     2    1
     4     6     8   ar
     5     6     7   ar
     6     8    10   ar
     7     7     9   ar
     8    10    11   ar
     9     2     3    1
    10     9    11   ar
    11    11    12    1
    12    95    94    2
    13    13     3   am
    14    13    14    1
    15     3     4    2
    16    18    17    1
    17    17    14    1
    18    94    93    1
    19    14    15    1
    20    93    96    1
    21    93    92    1
    22    15    16    2
    23    28    29   ar
    24    28    26   ar
    25    29    27   ar
    26    26    24   ar
    27    27    25   ar
    28    24    25   ar
    29    24    23    1
    30    87    86    2
    31    19    20    1
    32    23    20    1
    33    36    34    1
    34    86    85    1
    35    20    21    1
    36    30    21   am
    37    30    31    1
    38    34    31    1
    39    34    35    1
    40    21    22    2
    41    85    84    1
    42    85    88    1
    43    90    89    1
    44    89    88    1
    45    89    91    1
    46    31    32    1
    47    32    33    2
    48    41    42    1
    49    41    38    1
    50    37    38    1
    51    42    43   ar
    52    42    44   ar
    53    43    45   ar
    54    38    39    1
    55    44    47   ar
    56    44    46   ar
    57    45    46   ar
    58    47    49   ar
    59    46    48   ar
    60    51    39   am
    61    51    52    1
    62    39    40    2
    63    49    50   ar
    64    55    52    1
    65    48    50   ar
    66    63    61    1
    67    52    53    1
    68    61    60    1
    69    56    53   am
    70    56    57    1
    71    53    54    2
    72    60    57    1
    73    60    62    1
    74    57    58    1
    75    69    68    1
    76    58    59    2
    77    68    65    1
    78    68    70    1
    79    64    65    1
    80    65    66    1
    81    71    66   am
    82    71    72    1
    83    66    67    2
    84    75    72    1
    85    72    73    1
    86    73    74    2
    87    82    81    1
    88    81    83    1
    89    81    80    1
    90    76    77    1
    91    80    77    1
    92    77    78    1
    93    78    79    2
