@<TRIPOS>MOLECULE
tmp/1qhjA06.pdb
 128 120 0 0 0
SMALL
GASTEIGER

@<TRIPOS>ATOM
      1  N          7.5910   43.9160   24.5310 N.3   100  ASP100     -0.1239
      2  CA         6.1490   43.8330   24.7240 C.3   100  ASP100      0.1674
      3  C          5.4800   43.5880   23.3770 C.2   100  ASP100      0.2266
      4  O          6.0530   43.8870   22.3280 O.2   100  ASP100     -0.2867
      5  CB         5.6170   45.1330   25.3250 C.3   100  ASP100      0.1410
      6  CG         6.0460   46.3520   24.5370 C.2   100  ASP100      0.3668
      7  OD1        7.2180   46.7570   24.6600 O.co2 100  ASP100     -0.2456
      8  OD2        5.2180   46.9020   23.7850 O.co2 100  ASP100     -0.2456
      9  N          3.1940   45.1300   21.7710 N.3   102  GLY102     -0.1210
     10  CA         3.0890   46.3090   20.9320 C.3   102  GLY102      0.1956
     11  C          4.2820   46.5250   20.0160 C.2   102  GLY102      0.2612
     12  O          4.1220   46.7720   18.8220 O.2   102  GLY102     -0.2717
     13  N          5.4820   46.4240   20.5730 N.am  103  THR103     -0.1952
     14  CA         6.6980   46.6200   19.7970 C.3   103  THR103      0.1897
     15  C          6.8980   45.4920   18.7830 C.2   103  THR103      0.2313
     16  O          7.3640   45.7220   17.6710 O.2   103  THR103     -0.2863
     17  CB         7.9320   46.7030   20.7230 C.3   103  THR103      0.1794
     18  OG1        7.6840   47.6620   21.7600 O.3   103  THR103     -0.2208
     19  CG2        9.1580   47.1520   19.9410 C.3   103  THR103      0.0378
     20  N          4.5720   43.7530   17.2580 N.3   105  LEU105     -0.1231
     21  CA         3.6390   43.9920   16.1650 C.3   105  LEU105      0.1693
     22  C          4.1710   45.1060   15.2650 C.2   105  LEU105      0.2591
     23  O          4.1030   45.0130   14.0370 O.2   105  LEU105     -0.2718
     24  CB         2.2590   44.3600   16.7260 C.3   105  LEU105      0.0284
     25  CG         1.1000   44.5450   15.7420 C.3   105  LEU105      0.0019
     26  CD1       -0.2120   44.2980   16.4630 C.3   105  LEU105      0.0001
     27  CD2        1.1260   45.9390   15.1370 C.3   105  LEU105      0.0001
     28  N          4.7120   46.1550   15.8760 N.am  106  ALA106     -0.1980
     29  CA         5.2640   47.2710   15.1090 C.3   106  ALA106      0.1597
     30  C          6.4090   46.7910   14.2150 C.2   106  ALA106      0.2287
     31  O          6.4930   47.1620   13.0450 O.2   106  ALA106     -0.2864
     32  CB         5.7580   48.3630   16.0550 C.3   106  ALA106      0.0319
     33  N          5.0680   44.3640   11.4930 N.3   109  GLY109     -0.1210
     34  CA         4.3070   45.1360   10.5270 C.3   109  GLY109      0.1956
     35  C          5.2060   45.9340    9.6020 C.2   109  GLY109      0.2611
     36  O          5.0020   45.9490    8.3920 O.2   109  GLY109     -0.2717
     37  N          6.2040   46.6010   10.1730 N.am  110  ALA110     -0.1979
     38  CA         7.1350   47.3900    9.3770 C.3   110  ALA110      0.1597
     39  C          7.9190   46.4660    8.4430 C.2   110  ALA110      0.2287
     40  O          8.2270   46.8200    7.3040 O.2   110  ALA110     -0.2864
     41  CB         8.0930   48.1390   10.2940 C.3   110  ALA110      0.0319
     42  N          5.8750   45.4840    5.4980 N.3   113  ILE113     -0.1245
     43  CA         5.8310   46.5650    4.5260 C.3   113  ILE113      0.1561
     44  C          7.1460   46.6190    3.7540 C.2   113  ILE113      0.2260
     45  O          7.1550   46.7860    2.5340 O.2   113  ILE113     -0.2867
     46  CB         5.5690   47.9220    5.2120 C.3   113  ILE113      0.0252
     47  CG1        4.1240   47.9680    5.7180 C.3   113  ILE113      0.0019
     48  CG2        5.8280   49.0650    4.2340 C.3   113  ILE113      0.0019
     49  CD1        3.7650   49.2500    6.4500 C.3   113  ILE113      0.0001
     50  N          6.7950   46.0220   -0.2070 N.3   117  THR117     -0.1218
     51  CA         7.1170   47.1090   -1.1190 C.3   117  THR117      0.1862
     52  C          8.3570   46.7700   -1.9440 C.2   117  THR117      0.2287
     53  O          8.4900   47.2140   -3.0840 O.2   117  THR117     -0.2866
     54  CB         7.2980   48.4570   -0.3580 C.3   117  THR117      0.1770
     55  OG1        8.2260   48.3010    0.7200 O.3   117  THR117     -0.2211
     56  CG2        5.9550   48.9130    0.2140 C.3   117  THR117      0.0375
     57  N         10.4330   53.6710   -0.1390 N.3   136  ILE136     -0.1245
     58  CA         9.4340   53.3390    0.8770 C.3   136  ILE136      0.1561
     59  C          9.8930   52.1300    1.6930 C.2   136  ILE136      0.2260
     60  O          9.7720   52.1080    2.9170 O.2   136  ILE136     -0.2867
     61  CB         8.0570   53.0240    0.2300 C.3   136  ILE136      0.0252
     62  CG1        7.4380   54.3040   -0.3360 C.3   136  ILE136      0.0019
     63  CG2        7.1170   52.4070    1.2620 C.3   136  ILE136      0.0019
     64  CD1        6.2450   54.0590   -1.2330 C.3   136  ILE136      0.0001
     65  N         12.6280   53.1300    3.9860 N.3   139  ALA139     -0.1231
     66  CA        12.1100   53.8860    5.1220 C.3   139  ALA139      0.1694
     67  C         11.6140   52.9020    6.1820 C.2   139  ALA139      0.2591
     68  O         11.8130   53.1090    7.3800 O.2   139  ALA139     -0.2718
     69  CB        10.9680   54.8170    4.6810 C.3   139  ALA139      0.0304
     70  N         10.9660   51.8290    5.7350 N.am  140  ALA140     -0.1980
     71  CA        10.4660   50.8150    6.6540 C.3   140  ALA140      0.1597
     72  C         11.6460   50.1330    7.3490 C.2   140  ALA140      0.2287
     73  O         11.5840   49.8280    8.5480 O.2   140  ALA140     -0.2864
     74  CB         9.6130   49.7860    5.9000 C.3   140  ALA140      0.0319
     75  N         14.5680   51.4820    7.9720 N.3   142  LEU142     -0.1231
     76  CA        15.1150   52.4420    8.9300 C.3   142  LEU142      0.1693
     77  C         14.2830   52.4670   10.2070 C.2   142  LEU142      0.2592
     78  O         14.8180   52.6330   11.3050 O.2   142  LEU142     -0.2718
     79  CB        15.1750   53.8330    8.3010 C.3   142  LEU142      0.0284
     80  CG        16.1950   53.9430    7.1610 C.3   142  LEU142      0.0019
     81  CD1       16.0570   55.2790    6.4620 C.3   142  LEU142      0.0001
     82  CD2       17.6000   53.7650    7.7180 C.3   142  LEU142      0.0001
     83  N         12.9710   52.3130   10.0610 N.am  143  TYR143     -0.1976
     84  CA        12.0810   52.2840   11.2170 C.3   143  TYR143      0.1639
     85  C         12.4750   51.1010   12.1010 C.2   143  TYR143      0.2290
     86  O         12.6190   51.2330   13.3200 O.2   143  TYR143     -0.2864
     87  CB        10.6260   52.1100   10.7710 C.3   143  TYR143      0.0560
     88  CG         9.6660   51.9570   11.9300 C.ar  143  TYR143     -0.0198
     89  CD1        9.2700   53.0640   12.6830 C.ar  143  TYR143     -0.0009
     90  CD2        9.2010   50.7000   12.3090 C.ar  143  TYR143     -0.0009
     91  CE1        8.4370   52.9210   13.7890 C.ar  143  TYR143      0.0417
     92  CE2        8.3680   50.5430   13.4110 C.ar  143  TYR143      0.0417
     93  CZ         7.9920   51.6580   14.1480 C.ar  143  TYR143      0.1957
     94  OH         7.1810   51.5050   15.2480 O.3   143  TYR143     -0.2866
     95  N         15.6420   51.6470   13.8830 N.3   146  TYR146     -0.1227
     96  CA        15.4200   52.6460   14.9210 C.3   146  TYR146      0.1736
     97  C         14.8990   51.9670   16.1860 C.2   146  TYR146      0.2595
     98  O         15.4440   52.1570   17.2780 O.2   146  TYR146     -0.2718
     99  CB        14.4040   53.6860   14.4450 C.3   146  TYR146      0.0548
    100  CG        13.8970   54.5910   15.5470 C.ar  146  TYR146     -0.0200
    101  CD1       14.7360   55.5210   16.1550 C.ar  146  TYR146     -0.0009
    102  CD2       12.5830   54.4930   16.0020 C.ar  146  TYR146     -0.0009
    103  CE1       14.2790   56.3340   17.1940 C.ar  146  TYR146      0.0417
    104  CE2       12.1170   55.2960   17.0390 C.ar  146  TYR146      0.0417
    105  CZ        12.9690   56.2140   17.6310 C.ar  146  TYR146      0.1957
    106  OH        12.5100   57.0020   18.6640 O.3   146  TYR146     -0.2866
    107  N         13.8380   51.1790   16.0300 N.am  147  VAL147     -0.1980
    108  CA        13.2360   50.4660   17.1520 C.3   147  VAL147      0.1595
    109  C         14.2550   49.5650   17.8460 C.2   147  VAL147      0.2287
    110  O         14.2630   49.4520   19.0730 O.2   147  VAL147     -0.2864
    111  CB        12.0320   49.6060   16.6870 C.3   147  VAL147      0.0276
    112  CG1       11.5080   48.7610   17.8490 C.3   147  VAL147      0.0022
    113  CG2       10.9250   50.5090   16.1570 C.3   147  VAL147      0.0022
    114  N         16.4250   52.2850   19.8710 N.3   150  PHE150     -0.1227
    115  CA        15.7660   53.1890   20.8040 C.3   150  PHE150      0.1736
    116  C         14.5010   52.6240   21.4360 C.2   150  PHE150      0.2596
    117  O         13.7800   53.3340   22.1380 O.2   150  PHE150     -0.2718
    118  CB        15.4530   54.5010   20.0880 C.3   150  PHE150      0.0547
    119  CG        16.6750   55.2220   19.5990 C.ar  150  PHE150     -0.0202
    120  CD1       17.3790   56.0750   20.4420 C.ar  150  PHE150     -0.0042
    121  CD2       17.1450   55.0210   18.3060 C.ar  150  PHE150     -0.0042
    122  CE1       18.5330   56.7190   20.0040 C.ar  150  PHE150     -0.0003
    123  CE2       18.2980   55.6600   17.8580 C.ar  150  PHE150     -0.0003
    124  CZ        18.9930   56.5100   18.7100 C.ar  150  PHE150     -0.0000
    125  N         14.2380   51.3460   21.1890 N.am  151  GLY151     -0.1957
    126  CA        13.0590   50.7140   21.7530 C.3   151  GLY151      0.1869
    127  C         13.3600   49.3010   22.2060 C.2   151  GLY151      0.2309
    128  O         12.4890   48.6060   22.7320 O.2   151  GLY151     -0.2863
@<TRIPOS>BOND
     1    53    52    2
     2    52    51    1
     3    64    62    1
     4    51    54    1
     5    51    50    1
     6    54    56    1
     7    54    55    1
     8    62    61    1
     9    57    58    1
    10    61    58    1
    11    61    63    1
    12    58    59    1
    13    59    60    2
    14    45    44    2
    15    44    43    1
    16    65    66    1
    17    48    46    1
    18    43    46    1
    19    43    42    1
    20    69    66    1
    21    66    67    1
    22    46    47    1
    23    47    49    1
    24    70    67   am
    25    70    71    1
    26    74    71    1
    27    67    68    2
    28    81    80    1
    29    71    72    1
    30    80    82    1
    31    80    79    1
    32    40    39    2
    33    72    73    2
    34    75    76    1
    35    79    76    1
    36    36    35    2
    37    39    38    1
    38    76    77    1
    39    38    37    1
    40    38    41    1
    41    35    37   am
    42    35    34    1
    43    83    77   am
    44    83    84    1
    45    77    78    2
    46    34    33    1
    47    87    84    1
    48    87    88    1
    49    84    85    1
    50    88    90   ar
    51    88    89   ar
    52    85    86    2
    53    90    92   ar
    54    89    91   ar
    55    31    30    2
    56    92    93   ar
    57    91    93   ar
    58    95    96    1
    59    23    22    2
    60    93    94    1
    61    30    29    1
    62    99    96    1
    63    99   100    1
    64    96    97    1
    65    29    28    1
    66    29    32    1
    67    27    25    1
    68    22    28   am
    69    22    21    1
    70   100   102   ar
    71   100   101   ar
    72    25    26    1
    73    25    24    1
    74   102   104   ar
    75   107    97   am
    76   107   108    1
    77   101   103   ar
    78   113   111    1
    79    21    24    1
    80    21    20    1
    81    97    98    2
    82   111   108    1
    83   111   112    1
    84   104   105   ar
    85   108   109    1
    86   103   105   ar
    87   105   106    1
    88    16    15    2
    89   109   110    2
    90   123   121   ar
    91   123   124   ar
    92   121   119   ar
    93   124   122   ar
    94    15    14    1
    95    12    11    2
    96   119   118    1
    97   119   120   ar
    98    14    13    1
    99    14    17    1
   100   114   115    1
   101    19    17    1
   102   122   120   ar
   103    11    13   am
   104    11    10    1
   105   118   115    1
   106    17    18    1
   107   115   116    1
   108    10     9    1
   109   125   116   am
   110   125   126    1
   111   116   117    2
   112   126   127    1
   113   127   128    2
   114     4     3    2
   115     3     2    1
   116     8     6   ar
   117     1     2    1
   118     6     7   ar
   119     6     5    1
   120     2     5    1
