@<TRIPOS>MOLECULE
tmp/1qhpA00.pdb
 105 103 0 0 0
SMALL
GASTEIGER

@<TRIPOS>ATOM
      1  N         35.8830   85.6980   28.2000 N.3   177  TRP177     -0.1227
      2  CA        35.0290   84.5610   28.5680 C.3   177  TRP177      0.1737
      3  C         34.0580   84.8520   29.7010 C.2   177  TRP177      0.2595
      4  O         33.1060   84.0830   29.8920 O.2   177  TRP177     -0.2718
      5  CB        35.9320   83.3710   28.9340 C.3   177  TRP177      0.0564
      6  CG        36.6330   82.8050   27.7360 C.ar  177  TRP177      0.0003
      7  CD1       37.6900   83.3570   27.0590 C.ar  177  TRP177      0.0946
      8  CD2       36.3160   81.5800   27.0690 C.ar  177  TRP177      0.0152
      9  NE1       38.0410   82.5530   26.0010 N.ar  177  TRP177     -0.2442
     10  CE2       37.2200   81.4520   25.9940 C.ar  177  TRP177      0.0810
     11  CE3       35.3470   80.5920   27.2620 C.ar  177  TRP177      0.0012
     12  CZ2       37.1950   80.3580   25.1250 C.ar  177  TRP177      0.0191
     13  CZ3       35.3250   79.5150   26.3990 C.ar  177  TRP177      0.0001
     14  CH2       36.2510   79.4010   25.3440 C.ar  177  TRP177      0.0015
     15  N         34.2850   85.8800   30.5060 N.am  178  ASP178     -0.1974
     16  CA        33.3940   86.2560   31.5900 C.3   178  ASP178      0.1709
     17  C         32.3450   87.2670   31.1630 C.2   178  ASP178      0.2293
     18  O         31.5260   87.6600   32.0010 O.2   178  ASP178     -0.2864
     19  CB        34.1900   86.7570   32.8110 C.3   178  ASP178      0.1436
     20  CG        35.0120   85.6100   33.3810 C.2   178  ASP178      0.3671
     21  OD1       34.4950   84.4850   33.4810 O.co2 178  ASP178     -0.2456
     22  OD2       36.1900   85.8300   33.7280 O.co2 178  ASP178     -0.2456
     23  N         33.3070   79.4160   20.8080 N.3   188  PHE188     -0.1241
     24  CA        34.2060   78.7110   21.7200 C.3   188  PHE188      0.1605
     25  C         35.4980   78.5050   20.9250 C.2   188  PHE188      0.2264
     26  O         35.4060   78.1440   19.7470 O.2   188  PHE188     -0.2867
     27  CB        33.6000   77.3410   22.0690 C.3   188  PHE188      0.0534
     28  CG        34.1390   76.6700   23.2960 C.ar  188  PHE188     -0.0203
     29  CD1       35.3840   76.0500   23.2860 C.ar  188  PHE188     -0.0042
     30  CD2       33.3800   76.6430   24.4610 C.ar  188  PHE188     -0.0042
     31  CE1       35.8670   75.4310   24.4290 C.ar  188  PHE188     -0.0003
     32  CE2       33.8720   76.0270   25.5980 C.ar  188  PHE188     -0.0003
     33  CZ        35.1110   75.4170   25.5840 C.ar  188  PHE188     -0.0000
     34  N         42.8870   76.4020   21.9510 N.3   191  PRO191     -0.2116
     35  CA        44.2540   76.8810   21.8990 C.3   191  PRO191      0.1372
     36  C         45.0690   76.2270   20.7950 C.2   191  PRO191      0.2244
     37  O         46.0380   76.8340   20.3210 O.2   191  PRO191     -0.2868
     38  CB        44.9220   76.5810   23.2580 C.3   191  PRO191      0.0268
     39  CG        43.7580   76.1990   24.1110 C.3   191  PRO191      0.0207
     40  CD        42.5670   75.8090   23.2600 C.3   191  PRO191      0.0892
     41  N         28.4350   72.6350   28.4420 N.3   229  ALA229     -0.1245
     42  CA        28.5940   74.0670   28.2690 C.3   229  ALA229      0.1562
     43  C         27.3120   74.8650   28.3610 C.2   229  ALA229      0.2260
     44  O         27.0430   75.7060   27.4950 O.2   229  ALA229     -0.2867
     45  CB        29.2530   74.2310   26.8890 C.3   229  ALA229      0.0290
     46  N         26.6830   77.3670   30.1720 N.3   231  LYS231     -0.1231
     47  CA        26.9180   78.8060   30.2980 C.3   231  LYS231      0.1693
     48  C         27.1580   79.4370   28.9240 C.2   231  LYS231      0.2592
     49  O         27.2790   80.6540   28.8100 O.2   231  LYS231     -0.2718
     50  CB        28.0990   79.0850   31.2340 C.3   231  LYS231      0.0285
     51  CG        29.4670   78.9610   30.5910 C.3   231  LYS231      0.0035
     52  CD        30.5890   78.9690   31.6130 C.3   231  LYS231      0.0206
     53  CE        30.8010   80.3400   32.2220 C.3   231  LYS231      0.1093
     54  NZ        31.9600   80.3180   33.1800 N.3   231  LYS231     -0.1314
     55  N         27.3570   78.5930   27.9040 N.am  232  HIS232     -0.1976
     56  CA        27.6850   79.0580   26.5660 C.3   232  HIS232      0.1656
     57  C         26.4770   79.0940   25.6610 C.2   232  HIS232      0.2291
     58  O         26.6800   79.4880   24.5170 O.2   232  HIS232     -0.2864
     59  CB        28.8050   78.1750   25.9610 C.3   232  HIS232      0.0771
     60  CG        30.0990   78.4030   26.6900 C.ar  232  HIS232      0.0820
     61  ND1       30.7330   79.6270   26.6730 N.ar  232  HIS232     -0.2267
     62  CD2       30.8440   77.5880   27.4840 C.ar  232  HIS232      0.1154
     63  CE1       31.8170   79.5500   27.4470 C.ar  232  HIS232      0.1986
     64  NE2       31.9020   78.3320   27.9640 N.ar  232  HIS232     -0.2212
     65  N         26.6370   71.2190   32.8570 N.3   256  GLU256     -0.1245
     66  CA        27.9650   71.6870   33.2550 C.3   256  GLU256      0.1567
     67  C         28.0420   73.2050   33.0740 C.2   256  GLU256      0.2260
     68  O         28.1080   73.6910   31.9310 O.2   256  GLU256     -0.2867
     69  CB        29.0620   71.0360   32.3930 C.3   256  GLU256      0.0388
     70  CG        30.4500   71.5660   32.7880 C.3   256  GLU256      0.1160
     71  CD        31.2780   71.9730   31.5920 C.2   256  GLU256      0.3649
     72  OE1       30.7130   72.1500   30.4920 O.co2 256  GLU256     -0.2457
     73  OE2       32.5070   72.1620   31.7090 O.co2 256  GLU256     -0.2457
     74  N         30.4780   75.7530   33.8400 N.3   258  TYR258     -0.1227
     75  CA        31.8680   75.7500   34.2880 C.3   258  TYR258      0.1736
     76  C         32.2310   76.9270   35.1810 C.2   258  TYR258      0.2596
     77  O         31.9460   78.0660   34.8270 O.2   258  TYR258     -0.2718
     78  CB        32.7960   75.7560   33.0510 C.3   258  TYR258      0.0548
     79  CG        34.2270   75.4840   33.4900 C.ar  258  TYR258     -0.0200
     80  CD1       35.0050   76.5010   34.0300 C.ar  258  TYR258     -0.0009
     81  CD2       34.7540   74.2100   33.3950 C.ar  258  TYR258     -0.0009
     82  CE1       36.2950   76.2460   34.4720 C.ar  258  TYR258      0.0417
     83  CE2       36.0450   73.9500   33.8130 C.ar  258  TYR258      0.0417
     84  CZ        36.8010   74.9720   34.3460 C.ar  258  TYR258      0.1957
     85  OH        38.0920   74.7410   34.7570 O.3   258  TYR258     -0.2866
     86  N         32.8980   76.6200   36.2960 N.am  259  GLY259     -0.1942
     87  CA        33.4530   77.6910   37.1180 C.3   259  GLY259      0.2014
     88  C         32.4230   78.6140   37.7420 C.2   259  GLY259      0.2638
     89  O         31.3920   78.1430   38.2250 O.2   259  GLY259     -0.2714
     90  N         32.7200   79.9110   37.7310 N.am  260  ASP260     -0.1971
     91  CA        31.8660   80.9150   38.3530 C.3   260  ASP260      0.1709
     92  C         31.5630   80.5520   39.8130 C.2   260  ASP260      0.2293
     93  O         30.4130   80.4650   40.2270 O.2   260  ASP260     -0.2864
     94  CB        30.5800   81.1800   37.5570 C.3   260  ASP260      0.1436
     95  CG        30.8930   81.7480   36.1780 C.2   260  ASP260      0.3671
     96  OD1       31.9240   82.4420   36.0380 O.co2 260  ASP260     -0.2456
     97  OD2       30.1170   81.5150   35.2290 O.co2 260  ASP260     -0.2456
     98  N         38.6030   67.8660   32.2890 N.3   329  ASP329     -0.1239
     99  CA        39.0190   69.2330   32.0110 C.3   329  ASP329      0.1674
    100  C         39.9590   69.8230   33.0560 C.2   329  ASP329      0.2266
    101  O         40.2350   71.0330   33.0200 O.2   329  ASP329     -0.2867
    102  CB        37.7790   70.1480   31.9420 C.3   329  ASP329      0.1410
    103  CG        36.8740   69.8490   30.7610 C.2   329  ASP329      0.3668
    104  OD1       37.3800   69.3650   29.7160 O.co2 329  ASP329     -0.2456
    105  OD2       35.6530   70.0630   30.8650 O.co2 329  ASP329     -0.2456
@<TRIPOS>BOND
     1    26    25    2
     2    37    36    2
     3    36    35    1
     4    23    24    1
     5    25    24    1
     6    24    27    1
     7    35    34    1
     8    35    38    1
     9    34    40    1
    10    27    28    1
    11    38    39    1
    12    40    39    1
    13    29    28   ar
    14    29    31   ar
    15    28    30   ar
    16    31    33   ar
    17    30    32   ar
    18    58    57    2
    19    12    14   ar
    20    12    10   ar
    21    14    13   ar
    22    33    32   ar
    23    57    56    1
    24    59    56    1
    25    59    60    1
    26    10     9   ar
    27    10     8   ar
    28     9     7   ar
    29    13    11   ar
    30    56    55    1
    31    61    60   ar
    32    61    63   ar
    33    60    62   ar
    34    45    42    1
    35     7     6   ar
    36     8    11   ar
    37     8     6   ar
    38    63    64   ar
    39    62    64   ar
    40    44    43    2
    41     6     5    1
    42    55    48   am
    43     1     2    1
    44    42    43    1
    45    42    41    1
    46     2     5    1
    47     2     3    1
    48    49    48    2
    49    48    47    1
    50     3     4    2
    51     3    15   am
    52   104   103   ar
    53    46    47    1
    54    47    50    1
    55    72    71   ar
    56    15    16    1
    57    51    50    1
    58    51    52    1
    59   103   105   ar
    60   103   102    1
    61    17    16    1
    62    17    18    2
    63    16    19    1
    64    71    73   ar
    65    71    70    1
    66    52    53    1
    67    68    67    2
    68   102    99    1
    69    99    98    1
    70    99   100    1
    71    53    54    1
    72    69    70    1
    73    69    66    1
    74    19    20    1
    75    65    66    1
    76   101   100    2
    77    78    79    1
    78    78    75    1
    79    67    66    1
    80    20    21   ar
    81    20    22   ar
    82    81    79   ar
    83    81    83   ar
    84    79    80   ar
    85    83    84   ar
    86    74    75    1
    87    80    82   ar
    88    75    76    1
    89    84    82   ar
    90    84    85    1
    91    77    76    2
    92    76    86   am
    93    97    95   ar
    94    96    95   ar
    95    95    94    1
    96    86    87    1
    97    87    88    1
    98    94    91    1
    99    90    88   am
   100    90    91    1
   101    88    89    2
   102    91    92    1
   103    92    93    2
