@<TRIPOS>MOLECULE
tmp/1qhpA01.pdb
 190 187 0 0 0
SMALL
GASTEIGER

@<TRIPOS>ATOM
      1  N         45.7140   63.1200   21.0230 N.3    44  LYS44      -0.1245
      2  CA        44.4380   63.6490   20.5580 C.3    44  LYS44       0.1561
      3  C         43.8610   62.8120   19.4200 C.2    44  LYS44       0.2260
      4  O         42.9600   63.2700   18.7200 O.2    44  LYS44      -0.2867
      5  CB        44.5660   65.1330   20.1510 C.3    44  LYS44       0.0271
      6  CG        44.9740   65.9860   21.3600 C.3    44  LYS44       0.0035
      7  CD        44.9340   67.4760   21.0320 C.3    44  LYS44       0.0206
      8  CE        45.2980   68.2920   22.2750 C.3    44  LYS44       0.1093
      9  NZ        45.2100   69.7630   22.0000 N.3    44  LYS44      -0.1314
     10  N         38.0860   62.4530   19.1240 N.3    89  TYR89      -0.1227
     11  CA        38.0560   61.2880   19.9910 C.3    89  TYR89       0.1736
     12  C         37.2470   61.5350   21.2610 C.2    89  TYR89       0.2595
     13  O         36.6730   60.5900   21.8040 O.2    89  TYR89      -0.2718
     14  CB        39.4740   60.8240   20.3990 C.3    89  TYR89       0.0548
     15  CG        40.0830   61.6850   21.4810 C.ar   89  TYR89      -0.0200
     16  CD1       40.6470   62.9160   21.1640 C.ar   89  TYR89      -0.0009
     17  CD2       40.0200   61.3120   22.8250 C.ar   89  TYR89      -0.0009
     18  CE1       41.1550   63.7400   22.1580 C.ar   89  TYR89       0.0417
     19  CE2       40.4880   62.1470   23.8160 C.ar   89  TYR89       0.0417
     20  CZ        41.0380   63.3640   23.4770 C.ar   89  TYR89       0.1957
     21  OH        41.5360   64.2100   24.4540 O.3    89  TYR89      -0.2866
     22  N         37.2680   62.7570   21.8100 N.am   90  HIS90      -0.1975
     23  CA        36.5580   63.0950   23.0270 C.3    90  HIS90       0.1656
     24  C         35.0420   63.1930   22.8620 C.2    90  HIS90       0.2291
     25  O         34.3210   63.0990   23.8690 O.2    90  HIS90      -0.2864
     26  CB        37.0860   64.4490   23.5730 C.3    90  HIS90       0.0771
     27  CG        37.2520   65.4960   22.5140 C.ar   90  HIS90       0.0820
     28  ND1       36.1820   66.1440   21.9450 N.ar   90  HIS90      -0.2267
     29  CD2       38.3670   65.9990   21.9190 C.ar   90  HIS90       0.1154
     30  CE1       36.6250   67.0030   21.0290 C.ar   90  HIS90       0.1986
     31  NE2       37.9440   66.9240   20.9990 N.ar   90  HIS90      -0.2212
     32  N         33.2200   65.9630   21.7120 N.3    92  TYR92      -0.1227
     33  CA        32.5930   67.2860   21.8070 C.3    92  TYR92       0.1736
     34  C         32.4770   68.0330   20.4980 C.2    92  TYR92       0.2595
     35  O         32.1000   69.2200   20.5170 O.2    92  TYR92      -0.2718
     36  CB        33.3620   68.1100   22.8770 C.3    92  TYR92       0.0548
     37  CG        33.1390   67.4980   24.2490 C.ar   92  TYR92      -0.0200
     38  CD1       32.0060   67.7860   24.9990 C.ar   92  TYR92      -0.0009
     39  CD2       34.0640   66.5980   24.7740 C.ar   92  TYR92      -0.0009
     40  CE1       31.8080   67.2210   26.2480 C.ar   92  TYR92       0.0417
     41  CE2       33.8670   66.0210   26.0210 C.ar   92  TYR92       0.0417
     42  CZ        32.7380   66.3340   26.7520 C.ar   92  TYR92       0.1957
     43  OH        32.5670   65.7490   27.9950 O.3    92  TYR92      -0.2866
     44  N         32.8710   67.4280   19.3870 N.am   93  TRP93      -0.1976
     45  CA        32.8120   68.0720   18.0720 C.3    93  TRP93       0.1640
     46  C         31.8300   67.3280   17.1700 C.2    93  TRP93       0.2290
     47  O         32.2370   66.5290   16.3140 O.2    93  TRP93      -0.2864
     48  CB        34.2080   68.0890   17.4400 C.3    93  TRP93       0.0576
     49  CG        35.2760   68.8020   18.2160 C.ar   93  TRP93       0.0006
     50  CD1       35.1510   69.7410   19.1960 C.ar   93  TRP93       0.0946
     51  CD2       36.6960   68.6650   17.9800 C.ar   93  TRP93       0.0152
     52  NE1       36.3960   70.1660   19.6190 N.ar   93  TRP93      -0.2442
     53  CE2       37.3460   69.5190   18.8810 C.ar   93  TRP93       0.0810
     54  CE3       37.4630   67.8730   17.1150 C.ar   93  TRP93       0.0012
     55  CZ2       38.7430   69.6240   18.9600 C.ar   93  TRP93       0.0191
     56  CZ3       38.8450   68.0000   17.1790 C.ar   93  TRP93       0.0001
     57  CH2       39.4720   68.8490   18.0940 C.ar   93  TRP93       0.0015
     58  N         27.6760   73.5820   19.9400 N.3   132  HIS132     -0.1241
     59  CA        28.4180   73.7830   18.6850 C.3   132  HIS132      0.1621
     60  C         28.4830   72.5100   17.8740 C.2   132  HIS132      0.2264
     61  O         28.1790   71.4380   18.3940 O.2   132  HIS132     -0.2867
     62  CB        29.8450   74.2480   19.0460 C.3   132  HIS132      0.0745
     63  CG        30.4790   73.4310   20.1300 C.ar  132  HIS132      0.0817
     64  ND1       30.5630   73.9190   21.4170 N.ar  132  HIS132     -0.2268
     65  CD2       31.0290   72.2070   20.1410 C.ar  132  HIS132      0.1154
     66  CE1       31.1270   73.0110   22.1920 C.ar  132  HIS132      0.1986
     67  NE2       31.4160   71.9570   21.4470 N.ar  132  HIS132     -0.2212
     68  N         33.3070   79.4160   20.8080 N.3   188  PHE188     -0.1227
     69  CA        34.2060   78.7110   21.7200 C.3   188  PHE188      0.1736
     70  C         35.4980   78.5050   20.9250 C.2   188  PHE188      0.2596
     71  O         35.4060   78.1440   19.7470 O.2   188  PHE188     -0.2718
     72  CB        33.6000   77.3410   22.0690 C.3   188  PHE188      0.0547
     73  CG        34.1390   76.6700   23.2960 C.ar  188  PHE188     -0.0202
     74  CD1       35.3840   76.0500   23.2860 C.ar  188  PHE188     -0.0042
     75  CD2       33.3800   76.6430   24.4610 C.ar  188  PHE188     -0.0042
     76  CE1       35.8670   75.4310   24.4290 C.ar  188  PHE188     -0.0003
     77  CE2       33.8720   76.0270   25.5980 C.ar  188  PHE188     -0.0003
     78  CZ        35.1110   75.4170   25.5840 C.ar  188  PHE188     -0.0000
     79  N         36.6370   78.7910   21.5370 N.am  189  THR189     -0.1939
     80  CA        37.9060   78.6360   20.8260 C.3   189  THR189      0.2028
     81  C         38.7400   77.5410   21.4730 C.2   189  THR189      0.2642
     82  O         38.5470   77.1700   22.6370 O.2   189  THR189     -0.2714
     83  CB        38.7210   79.9480   20.8360 C.3   189  THR189      0.1808
     84  OG1       39.0380   80.3130   22.1910 O.3   189  THR189     -0.2208
     85  CG2       37.9520   81.0830   20.1660 C.3   189  THR189      0.0379
     86  N         39.6770   77.0110   20.6920 N.am  190  ASP190     -0.1957
     87  CA        40.5950   75.9770   21.2010 C.3   190  ASP190      0.1825
     88  C         41.9930   76.5460   20.9940 C.2   190  ASP190      0.2464
     89  O         42.3180   77.0420   19.9120 O.2   190  ASP190     -0.2730
     90  CB        40.3780   74.7020   20.3990 C.3   190  ASP190      0.1450
     91  CG        41.1700   73.4960   20.8370 C.2   190  ASP190      0.3671
     92  OD1       42.4040   73.5540   21.0060 O.co2 190  ASP190     -0.2456
     93  OD2       40.5380   72.4270   21.0450 O.co2 190  ASP190     -0.2456
     94  N         42.8870   76.4020   21.9510 N.am  191  PRO191     -0.2727
     95  CA        44.2540   76.8810   21.8990 C.3   191  PRO191      0.1402
     96  C         45.0690   76.2270   20.7950 C.2   191  PRO191      0.2269
     97  O         46.0380   76.8340   20.3210 O.2   191  PRO191     -0.2865
     98  CB        44.9220   76.5810   23.2580 C.3   191  PRO191      0.0296
     99  CG        43.7580   76.1990   24.1110 C.3   191  PRO191      0.0237
    100  CD        42.5670   75.8090   23.2600 C.3   191  PRO191      0.0939
    101  N         34.9940   76.6960   17.3210 N.3   196  LEU196     -0.1245
    102  CA        33.9190   75.7130   17.1530 C.3   196  LEU196      0.1561
    103  C         32.6880   76.4520   16.6280 C.2   196  LEU196      0.2260
    104  O         32.3200   77.4950   17.1760 O.2   196  LEU196     -0.2867
    105  CB        33.6300   74.9870   18.4730 C.3   196  LEU196      0.0270
    106  CG        34.8350   74.3310   19.1620 C.3   196  LEU196      0.0019
    107  CD1       34.3600   73.5940   20.4150 C.3   196  LEU196      0.0001
    108  CD2       35.5850   73.3450   18.2660 C.3   196  LEU196      0.0001
    109  N         24.0090   64.7140   30.7220 N.3   226  ARG226     -0.1245
    110  CA        24.8980   65.7280   31.3010 C.3   226  ARG226      0.1563
    111  C         25.0300   66.7410   30.1530 C.2   226  ARG226      0.2260
    112  O         25.5540   66.4190   29.0860 O.2   226  ARG226     -0.2867
    113  CB        26.2290   65.1520   31.7430 C.3   226  ARG226      0.0307
    114  CG        27.2570   66.1940   32.2080 C.3   226  ARG226      0.0489
    115  CD        28.1260   66.6570   31.0420 C.3   226  ARG226      0.2205
    116  NE        29.3170   67.3940   31.4760 N.pl3 226  ARG226     -0.0865
    117  CZ        30.1540   68.0640   30.6990 C.cat 226  ARG226      0.5346
    118  NH1       29.9100   68.2130   29.4020 N.pl3 226  ARG226      0.1354
    119  NH2       31.2140   68.6780   31.2220 N.pl3 226  ARG226      0.1354
    120  N         26.3920   69.6560   28.1440 N.3   228  ASP228     -0.1225
    121  CA        27.6580   70.3770   28.0380 C.3   228  ASP228      0.1805
    122  C         27.5060   71.8830   27.8750 C.2   228  ASP228      0.2597
    123  O         26.6100   72.3250   27.1700 O.2   228  ASP228     -0.2718
    124  CB        28.3790   69.8350   26.7830 C.3   228  ASP228      0.1424
    125  CG        29.7610   70.4440   26.6240 C.2   228  ASP228      0.3668
    126  OD1       30.5900   70.2600   27.5350 O.co2 228  ASP228     -0.2456
    127  OD2       29.9920   71.1380   25.6130 O.co2 228  ASP228     -0.2456
    128  N         28.4350   72.6350   28.4420 N.am  229  ALA229     -0.1979
    129  CA        28.5940   74.0670   28.2690 C.3   229  ALA229      0.1597
    130  C         27.3120   74.8650   28.3610 C.2   229  ALA229      0.2287
    131  O         27.0430   75.7060   27.4950 O.2   229  ALA229     -0.2864
    132  CB        29.2530   74.2310   26.8890 C.3   229  ALA229      0.0319
    133  N         26.6370   71.2190   32.8570 N.3   256  GLU256     -0.1245
    134  CA        27.9650   71.6870   33.2550 C.3   256  GLU256      0.1567
    135  C         28.0420   73.2050   33.0740 C.2   256  GLU256      0.2260
    136  O         28.1080   73.6910   31.9310 O.2   256  GLU256     -0.2867
    137  CB        29.0620   71.0360   32.3930 C.3   256  GLU256      0.0388
    138  CG        30.4500   71.5660   32.7880 C.3   256  GLU256      0.1160
    139  CD        31.2780   71.9730   31.5920 C.2   256  GLU256      0.3649
    140  OE1       30.7130   72.1500   30.4920 O.co2 256  GLU256     -0.2457
    141  OE2       32.5070   72.1620   31.7090 O.co2 256  GLU256     -0.2457
    142  N         30.4780   75.7530   33.8400 N.3   258  TYR258     -0.1241
    143  CA        31.8680   75.7500   34.2880 C.3   258  TYR258      0.1605
    144  C         32.2310   76.9270   35.1810 C.2   258  TYR258      0.2264
    145  O         31.9460   78.0660   34.8270 O.2   258  TYR258     -0.2867
    146  CB        32.7960   75.7560   33.0510 C.3   258  TYR258      0.0534
    147  CG        34.2270   75.4840   33.4900 C.ar  258  TYR258     -0.0201
    148  CD1       35.0050   76.5010   34.0300 C.ar  258  TYR258     -0.0009
    149  CD2       34.7540   74.2100   33.3950 C.ar  258  TYR258     -0.0009
    150  CE1       36.2950   76.2460   34.4720 C.ar  258  TYR258      0.0417
    151  CE2       36.0450   73.9500   33.8130 C.ar  258  TYR258      0.0417
    152  CZ        36.8010   74.9720   34.3460 C.ar  258  TYR258      0.1957
    153  OH        38.0920   74.7410   34.7570 O.3   258  TYR258     -0.2866
    154  N         37.6860   65.3970   33.1710 N.3   328  HIS328     -0.1226
    155  CA        38.4210   65.4500   31.9110 C.3   328  HIS328      0.1752
    156  C         38.8940   66.8380   31.5150 C.2   328  HIS328      0.2596
    157  O         39.6400   66.9170   30.5230 O.2   328  HIS328     -0.2718
    158  CB        37.5200   64.8740   30.7950 C.3   328  HIS328      0.0759
    159  CG        36.3000   65.7150   30.5560 C.ar  328  HIS328      0.0818
    160  ND1       35.4470   66.0430   31.5900 N.ar  328  HIS328     -0.2268
    161  CD2       35.7660   66.2970   29.4560 C.ar  328  HIS328      0.1154
    162  CE1       34.4550   66.7830   31.1310 C.ar  328  HIS328      0.1986
    163  NE2       34.6150   66.9650   29.8310 N.ar  328  HIS328     -0.2212
    164  N         38.6030   67.8660   32.2890 N.am  329  ASP329     -0.1974
    165  CA        39.0190   69.2330   32.0110 C.3   329  ASP329      0.1709
    166  C         39.9590   69.8230   33.0560 C.2   329  ASP329      0.2293
    167  O         40.2350   71.0330   33.0200 O.2   329  ASP329     -0.2864
    168  CB        37.7790   70.1480   31.9420 C.3   329  ASP329      0.1436
    169  CG        36.8740   69.8490   30.7610 C.2   329  ASP329      0.3671
    170  OD1       37.3800   69.3650   29.7160 O.co2 329  ASP329     -0.2456
    171  OD2       35.6530   70.0630   30.8650 O.co2 329  ASP329     -0.2456
    172  N         44.2390   68.1960   30.1130 N.3   372  ASP372     -0.1239
    173  CA        43.8570   67.7470   28.7750 C.3   372  ASP372      0.1674
    174  C         44.9540   67.9850   27.7740 C.2   372  ASP372      0.2266
    175  O         45.4170   69.1270   27.6370 O.2   372  ASP372     -0.2867
    176  CB        42.6230   68.6480   28.4810 C.3   372  ASP372      0.1410
    177  CG        42.0220   68.4290   27.1120 C.2   372  ASP372      0.3668
    178  OD1       42.4270   67.4470   26.4610 O.co2 372  ASP372     -0.2456
    179  OD2       41.1530   69.2270   26.6750 O.co2 372  ASP372     -0.2456
    180  N         43.3830   62.0270   30.1220 N.3   376  ARG376     -0.1245
    181  CA        42.5860   61.0910   29.3560 C.3   376  ARG376      0.1563
    182  C         43.4010   59.8890   28.8840 C.2   376  ARG376      0.2260
    183  O         43.2580   59.4140   27.7570 O.2   376  ARG376     -0.2867
    184  CB        41.9230   61.7830   28.1400 C.3   376  ARG376      0.0307
    185  CG        41.0420   62.9490   28.6200 C.3   376  ARG376      0.0489
    186  CD        40.8770   64.0060   27.5490 C.3   376  ARG376      0.2205
    187  NE        40.1720   65.1970   28.0820 N.pl3 376  ARG376     -0.0865
    188  CZ        39.5370   66.0460   27.2670 C.cat 376  ARG376      0.5346
    189  NH1       39.5100   65.8290   25.9550 N.pl3 376  ARG376      0.1354
    190  NH2       38.9110   67.0950   27.7790 N.pl3 376  ARG376      0.1354
@<TRIPOS>BOND
     1    47    46    2
     2   103   102    1
     3   103   104    2
     4    54    56   ar
     5    54    51   ar
     6   102   101    1
     7   102   105    1
     8    46    45    1
     9    56    57   ar
    10    48    45    1
    11    48    49    1
    12    60    61    2
    13    60    59    1
    14    51    49   ar
    15    51    53   ar
    16    45    44    1
    17    57    55   ar
    18    49    50   ar
    19   108   106    1
    20   105   106    1
    21    59    62    1
    22    59    58    1
    23     4     3    2
    24    53    55   ar
    25    53    52   ar
    26    62    63    1
    27    10    11    1
    28   106   107    1
    29    50    52   ar
    30    44    34   am
    31     3     2    1
    32    71    70    2
    33    89    88    2
    34    11    14    1
    35    11    12    1
    36    63    65   ar
    37    63    64   ar
    38    65    67   ar
    39     5     2    1
    40     5     6    1
    41    85    83    1
    42    97    96    2
    43    90    91    1
    44    90    87    1
    45    14    15    1
    46    34    35    2
    47    34    33    1
    48     2     1    1
    49    86    87    1
    50    86    81   am
    51    96    95    1
    52    68    69    1
    53    80    83    1
    54    80    81    1
    55    80    79    1
    56    83    84    1
    57    91    92   ar
    58    91    93   ar
    59    70    79   am
    60    70    69    1
    61    88    87    1
    62    88    94   am
    63    31    30   ar
    64    31    29   ar
    65    30    28   ar
    66     7     6    1
    67     7     8    1
    68    16    15   ar
    69    16    18   ar
    70    12    13    2
    71    12    22   am
    72    64    66   ar
    73    67    66   ar
    74    81    82    2
    75    15    17   ar
    76    32    33    1
    77    69    72    1
    78    33    36    1
    79    22    23    1
    80    95    94    1
    81    95    98    1
    82    29    27   ar
    83    28    27   ar
    84    94   100    1
    85     9     8    1
    86    72    73    1
    87    18    20   ar
    88    27    26    1
    89    17    19   ar
    90    24    23    1
    91    24    25    2
    92    36    37    1
    93    23    26    1
    94    98    99    1
    95   100    99    1
    96    74    73   ar
    97    74    76   ar
    98    73    75   ar
    99    20    19   ar
   100    20    21    1
   101    37    39   ar
   102    37    38   ar
   103    76    78   ar
   104    75    77   ar
   105    39    41   ar
   106    38    40   ar
   107    78    77   ar
   108   127   125   ar
   109   189   188    1
   110    41    42   ar
   111    40    42   ar
   112   178   177   ar
   113   125   124    1
   114   125   126   ar
   115   179   177   ar
   116    42    43    1
   117   124   121    1
   118   132   129    1
   119   177   176    1
   120   123   122    2
   121   188   190    1
   122   188   187    2
   123   131   130    2
   124   186   187    1
   125   186   185    1
   126   175   174    2
   127   183   182    2
   128   174   173    1
   129   122   121    1
   130   122   128   am
   131   121   120    1
   132   184   185    1
   133   184   181    1
   134   129   130    1
   135   129   128    1
   136   176   173    1
   137   173   172    1
   138   182   181    1
   139   112   111    2
   140   181   180    1
   141   118   117    1
   142   161   163   ar
   143   161   159   ar
   144   170   169   ar
   145   163   162   ar
   146   111   110    1
   147   140   139   ar
   148   157   156    2
   149   159   158    1
   150   159   160   ar
   151   117   119    1
   152   117   116    2
   153   109   110    1
   154   169   171   ar
   155   169   168    1
   156   158   155    1
   157   115   116    1
   158   115   114    1
   159   162   160   ar
   160   110   113    1
   161   156   155    1
   162   156   164   am
   163   139   141   ar
   164   139   138    1
   165   113   114    1
   166   155   154    1
   167   136   135    2
   168   168   165    1
   169   165   164    1
   170   165   166    1
   171   137   138    1
   172   137   134    1
   173   133   134    1
   174   167   166    2
   175   146   147    1
   176   146   143    1
   177   135   134    1
   178   149   147   ar
   179   149   151   ar
   180   147   148   ar
   181   151   152   ar
   182   142   143    1
   183   148   150   ar
   184   143   144    1
   185   152   150   ar
   186   152   153    1
   187   145   144    2
