@<TRIPOS>MOLECULE
tmp/1qhrB01.pdb
 190 192 0 0 0
SMALL
GASTEIGER

@<TRIPOS>ATOM
      1  N          7.5570   25.9190   62.3220 N.3    27  LEU27      -0.1231
      2  CA         6.6120   25.4460   61.2820 C.3    27  LEU27       0.1693
      3  C          7.0450   25.7180   59.8350 C.2    27  LEU27       0.2592
      4  O          7.1400   24.8620   58.9810 O.2    27  LEU27      -0.2718
      5  CB         5.3240   26.1850   61.5300 C.3    27  LEU27       0.0284
      6  CG         4.7410   25.8590   62.8770 C.3    27  LEU27       0.0019
      7  CD1        3.3870   26.5270   62.9110 C.3    27  LEU27       0.0001
      8  CD2        4.5880   24.3380   63.1270 C.3    27  LEU27       0.0001
      9  N          7.3490   27.0100   59.6100 N.am   28  CYS28      -0.1970
     10  CA         7.5760   27.5740   58.2730 C.3    28  CYS28       0.1712
     11  C          8.3100   28.8960   58.3340 C.2    28  CYS28       0.2296
     12  O          8.4270   29.5290   59.3710 O.2    28  CYS28      -0.2864
     13  CB         6.2140   27.9020   57.6530 C.3    28  CYS28       0.0983
     14  SG         5.2780   26.5390   56.8510 S.3    28  CYS28      -0.0798
     15  N         -0.7070   26.8390   53.0980 N.3    43  HIS43      -0.1241
     16  CA        -0.4810   25.4730   53.5960 C.3    43  HIS43       0.1621
     17  C          0.3230   25.2400   54.9170 C.2    43  HIS43       0.2264
     18  O          0.2450   24.2120   55.5540 O.2    43  HIS43      -0.2867
     19  CB         0.0800   24.6070   52.4550 C.3    43  HIS43       0.0745
     20  CG         1.5750   24.6210   52.4010 C.ar   43  HIS43       0.0817
     21  ND1        2.2880   25.3280   51.5310 N.ar   43  HIS43      -0.2268
     22  CD2        2.4500   23.8950   53.2000 C.ar   43  HIS43       0.1154
     23  CE1        3.6090   25.0710   51.7430 C.ar   43  HIS43       0.1986
     24  NE2        3.6870   24.1960   52.7690 N.ar   43  HIS43      -0.2212
     25  N         -3.8600   16.6100   56.3000 N.3    50  TRP50      -0.1241
     26  CA        -3.0120   16.2470   57.4440 C.3    50  TRP50       0.1605
     27  C         -3.5600   16.7130   58.7690 C.2    50  TRP50       0.2264
     28  O         -2.8310   16.8480   59.7330 O.2    50  TRP50      -0.2867
     29  CB        -1.5780   16.8070   57.3280 C.3    50  TRP50       0.0550
     30  CG        -0.8260   16.2740   56.1210 C.ar   50  TRP50       0.0003
     31  CD1       -1.1830   15.1880   55.2900 C.ar   50  TRP50       0.0946
     32  CD2        0.3800   16.7650   55.5750 C.ar   50  TRP50       0.0152
     33  NE1       -0.3030   14.9680   54.2680 N.ar   50  TRP50      -0.2442
     34  CE2        0.6840   15.9220   54.3850 C.ar   50  TRP50       0.0810
     35  CE3        1.2710   17.7780   55.9470 C.ar   50  TRP50       0.0012
     36  CZ2        1.8450   16.1810   53.6450 C.ar   50  TRP50       0.0191
     37  CZ3        2.4220   17.9920   55.1910 C.ar   50  TRP50       0.0001
     38  CH2        2.7000   17.2110   54.0570 C.ar   50  TRP50       0.0015
     39  N         -4.0890   19.6700   59.6060 N.3    52  LYS52      -0.1245
     40  CA        -3.4580   20.9250   60.0170 C.3    52  LYS52       0.1561
     41  C         -4.3450   22.1350   59.8130 C.2    52  LYS52       0.2260
     42  O         -4.8430   22.4430   58.7470 O.2    52  LYS52      -0.2867
     43  CB        -2.1530   21.0700   59.2850 C.3    52  LYS52       0.0271
     44  CG        -1.4800   22.3900   59.6300 C.3    52  LYS52       0.0035
     45  CD        -0.3380   22.6710   58.6660 C.3    52  LYS52       0.0206
     46  CE         0.7360   21.5990   58.6980 C.3    52  LYS52       0.1093
     47  NZ         1.6250   21.9410   57.5930 N.3    52  LYS52      -0.1314
     48  N         11.1150   14.5860   53.4380 N.3   148  TRP148     -0.1241
     49  CA        10.0390   13.6030   53.1190 C.3   148  TRP148      0.1605
     50  C         10.6260   12.3130   52.5130 C.2   148  TRP148      0.2264
     51  O         10.4630   11.9400   51.3570 O.2   148  TRP148     -0.2867
     52  CB         8.9160   14.1790   52.2080 C.3   148  TRP148      0.0550
     53  CG         8.7650   15.6680   52.4550 C.ar  148  TRP148      0.0003
     54  CD1        8.0420   16.3310   53.4800 C.ar  148  TRP148      0.0946
     55  CD2        9.4480   16.6660   51.7350 C.ar  148  TRP148      0.0152
     56  NE1        8.2570   17.6800   53.4410 N.ar  148  TRP148     -0.2442
     57  CE2        9.1220   17.9400   52.3950 C.ar  148  TRP148      0.0810
     58  CE3       10.2490   16.6520   50.6030 C.ar  148  TRP148      0.0012
     59  CZ2        9.6480   19.1040   51.8590 C.ar  148  TRP148      0.0191
     60  CZ3       10.7280   17.8540   50.1120 C.ar  148  TRP148      0.0001
     61  CH2       10.4400   19.0620   50.7260 C.ar  148  TRP148      0.0015
     62  N         18.1930   23.9310   46.4480 N.3   199  ASP199     -0.1225
     63  CA        16.7300   23.9570   46.5050 C.3   199  ASP199      0.1805
     64  C         16.3030   24.3860   47.8980 C.2   199  ASP199      0.2598
     65  O         17.0560   24.3260   48.8500 O.2   199  ASP199     -0.2718
     66  CB        16.1340   22.5420   46.1440 C.3   199  ASP199      0.1424
     67  CG        14.6090   22.4350   45.9360 C.2   199  ASP199      0.3668
     68  OD1       13.9150   23.4400   45.7360 O.co2 199  ASP199     -0.2456
     69  OD2       14.0860   21.3200   45.9710 O.co2 199  ASP199     -0.2456
     70  N         15.0680   24.8000   48.0110 N.am  200  ALA200     -0.1966
     71  CA        14.4260   24.7810   49.3010 C.3   200  ALA200      0.1728
     72  C         14.0530   23.3610   49.7310 C.2   200  ALA200      0.2616
     73  O         14.2060   22.3980   49.0100 O.2   200  ALA200     -0.2715
     74  CB        13.1910   25.6770   49.2650 C.3   200  ALA200      0.0334
     75  N         13.6000   23.2320   50.9530 N.am  201  CYS201     -0.1954
     76  CA        13.3670   21.8990   51.5250 C.3   201  CYS201      0.1843
     77  C         12.4450   22.0340   52.7060 C.2   201  CYS201      0.2625
     78  O         12.0260   23.1520   52.9970 O.2   201  CYS201     -0.2714
     79  CB        14.6620   21.1580   51.9540 C.3   201  CYS201      0.0997
     80  SG        14.3910   19.3550   52.1400 S.3   201  CYS201     -0.0797
     81  N         12.1400   20.9240   53.3880 N.am  202  GLU202     -0.1963
     82  CA        11.1400   21.0960   54.4400 C.3   202  GLU202      0.1733
     83  C         11.4140   22.1050   55.5620 C.2   202  GLU202      0.2617
     84  O         12.5340   22.2150   56.0220 O.2   202  GLU202     -0.2715
     85  CB        10.8870   19.7580   55.0630 C.3   202  GLU202      0.0429
     86  CG         9.4310   19.9490   55.3690 C.3   202  GLU202      0.1163
     87  CD         9.0240   19.1100   56.5130 C.2   202  GLU202      0.3649
     88  OE1        9.4300   17.9350   56.5330 O.co2 202  GLU202     -0.2457
     89  OE2        8.2890   19.6440   57.3630 O.co2 202  GLU202     -0.2457
     90  N         10.4090   22.8640   55.9920 N.am  203  GLY203     -0.1940
     91  CA        10.6990   23.9120   56.9800 C.3   203  GLY203      0.2014
     92  C         10.9840   25.2740   56.3630 C.2   203  GLY203      0.2639
     93  O         10.8950   26.3120   56.9860 O.2   203  GLY203     -0.2714
     94  N         11.3180   25.2640   55.0720 N.am  204  ASP204     -0.1957
     95  CA        11.4660   26.5010   54.2790 C.3   204  ASP204      0.1840
     96  C         10.1990   27.1100   53.6970 C.2   204  ASP204      0.2625
     97  O         10.2120   28.2640   53.3050 O.2   204  ASP204     -0.2714
     98  CB        12.4210   26.3120   53.0920 C.3   204  ASP204      0.1450
     99  CG        13.8220   26.0380   53.5940 C.2   204  ASP204      0.3671
    100  OD1       14.2300   26.6580   54.5670 O.co2 204  ASP204     -0.2456
    101  OD2       14.5530   25.2440   53.0170 O.co2 204  ASP204     -0.2456
    102  N          9.1180   26.3230   53.6340 N.am  205  SER205     -0.1896
    103  CA         7.8050   26.7060   53.0680 C.3   205  SER205      0.2236
    104  C          7.3160   27.9670   53.6950 C.2   205  SER205      0.2368
    105  O          7.5870   28.2300   54.8640 O.2   205  SER205     -0.2859
    106  CB         6.7210   25.6150   53.1420 C.2   205  SER205      0.2368
    107  OG         6.9910   24.4630   52.8500 O.2   205  SER205     -0.2859
    108  N          7.8620   30.2940   48.9160 N.3   225  VAL225     -0.1231
    109  CA         8.0950   28.8370   48.8670 C.3   225  VAL225      0.1692
    110  C          6.8200   28.0340   49.1160 C.2   225  VAL225      0.2593
    111  O          6.1100   28.1110   50.1160 O.2   225  VAL225     -0.2718
    112  CB         9.2780   28.3720   49.8270 C.3   225  VAL225      0.0266
    113  CG1        9.6800   26.8910   49.6660 C.3   225  VAL225      0.0020
    114  CG2       10.5360   29.2270   49.7010 C.3   225  VAL225      0.0020
    115  N          6.4820   27.2990   48.0660 N.am  226  SER226     -0.1938
    116  CA         5.1710   26.6560   48.1340 C.3   226  SER226      0.2055
    117  C          5.2360   25.1430   48.1250 C.2   226  SER226      0.2643
    118  O          4.6930   24.4870   48.9890 O.2   226  SER226     -0.2714
    119  CB         4.3000   27.0580   46.9270 C.3   226  SER226      0.2130
    120  OG         3.0180   26.4530   47.0270 O.3   226  SER226     -0.2179
    121  N          5.8470   24.5930   47.0740 N.am  227  TRP227     -0.1959
    122  CA         5.8910   23.1240   46.9940 C.3   227  TRP227      0.1771
    123  C          6.9670   22.5860   46.0770 C.2   227  TRP227      0.2620
    124  O          7.6460   23.2980   45.3540 O.2   227  TRP227     -0.2715
    125  CB         4.4630   22.5050   46.7210 C.3   227  TRP227      0.0590
    126  CG         3.8960   22.8540   45.3480 C.ar  227  TRP227      0.0006
    127  CD1        3.1400   23.9770   45.0050 C.ar  227  TRP227      0.0946
    128  CD2        4.0070   22.1180   44.1450 C.ar  227  TRP227      0.0152
    129  NE1        2.7750   24.0090   43.6990 N.ar  227  TRP227     -0.2442
    130  CE2        3.2860   22.8890   43.1210 C.ar  227  TRP227      0.0810
    131  CE3        4.5950   20.9020   43.7830 C.ar  227  TRP227      0.0012
    132  CZ2        3.2370   22.3600   41.8340 C.ar  227  TRP227      0.0191
    133  CZ3        4.5230   20.4180   42.4900 C.ar  227  TRP227      0.0001
    134  CH2        3.8460   21.1480   41.5200 C.ar  227  TRP227      0.0015
    135  N          7.1740   21.2800   46.1220 N.am  228  GLY228     -0.1940
    136  CA         8.1400   20.6760   45.2090 C.3   228  GLY228      0.2014
    137  C          8.1590   19.1760   45.4320 C.2   228  GLY228      0.2639
    138  O          7.5310   18.6590   46.3270 O.2   228  GLY228     -0.2714
    139  N          8.8680   18.4620   44.6120 N.am  229  GLU229     -0.1963
    140  CA         8.8710   17.0070   44.8340 C.3   229  GLU229      0.1733
    141  C         10.2410   16.5700   45.2980 C.2   229  GLU229      0.2616
    142  O         11.2510   16.6560   44.6120 O.2   229  GLU229     -0.2715
    143  CB         8.4980   16.3110   43.5150 C.3   229  GLU229      0.0429
    144  CG         7.0480   16.6520   43.1320 C.3   229  GLU229      0.1163
    145  CD         6.7600   16.6330   41.6230 C.2   229  GLU229      0.3649
    146  OE1        7.4330   17.3150   40.8360 O.co2 229  GLU229     -0.2457
    147  OE2        5.8010   15.9750   41.2530 O.co2 229  GLU229     -0.2457
    148  N         10.2590   16.1900   46.5670 N.am  230  GLY230     -0.1955
    149  CA        11.5690   16.0440   47.2070 C.3   230  GLY230      0.1869
    150  C         12.3110   17.3440   47.3980 C.2   230  GLY230      0.2309
    151  O         11.7650   18.4360   47.3690 O.2   230  GLY230     -0.2863
    152  N         11.8190   20.6070   40.2790 N.3   237  TYR237     -0.1227
    153  CA        12.0080   22.0330   40.5100 C.3   237  TYR237      0.1736
    154  C         11.1850   22.4820   41.6850 C.2   237  TYR237      0.2596
    155  O         10.1850   21.9030   42.0680 O.2   237  TYR237     -0.2718
    156  CB        11.5700   22.8670   39.2880 C.3   237  TYR237      0.0548
    157  CG        12.3960   22.4940   38.0840 C.ar  237  TYR237     -0.0200
    158  CD1       13.6390   23.0590   37.9320 C.ar  237  TYR237     -0.0009
    159  CD2       11.9480   21.5580   37.1490 C.ar  237  TYR237     -0.0009
    160  CE1       14.4560   22.7010   36.8760 C.ar  237  TYR237      0.0417
    161  CE2       12.7730   21.1900   36.0910 C.ar  237  TYR237      0.0417
    162  CZ        14.0280   21.7560   35.9640 C.ar  237  TYR237      0.1957
    163  OH        14.8980   21.3780   34.9650 O.3   237  TYR237     -0.2866
    164  N         11.6210   23.5800   42.2980 N.am  238  GLY238     -0.1942
    165  CA        10.7120   24.1300   43.2900 C.3   238  GLY238      0.2014
    166  C          9.6520   24.9980   42.6890 C.2   238  GLY238      0.2639
    167  O          9.8990   25.7310   41.7540 O.2   238  GLY238     -0.2714
    168  N          8.4830   24.9100   43.2750 N.am  239  PHE239     -0.1959
    169  CA         7.3720   25.7850   42.9320 C.3   239  PHE239      0.1771
    170  C          7.0610   26.8110   44.0200 C.2   239  PHE239      0.2619
    171  O          7.1240   26.6220   45.2330 O.2   239  PHE239     -0.2715
    172  CB         6.0820   24.9540   42.6390 C.3   239  PHE239      0.0574
    173  CG         6.2190   24.1150   41.3580 C.ar  239  PHE239     -0.0200
    174  CD1        6.9460   22.9290   41.3180 C.ar  239  PHE239     -0.0042
    175  CD2        5.6620   24.5580   40.1570 C.ar  239  PHE239     -0.0042
    176  CE1        7.1310   22.2120   40.1260 C.ar  239  PHE239     -0.0003
    177  CE2        5.8560   23.8410   38.9630 C.ar  239  PHE239     -0.0003
    178  CZ         6.5910   22.6610   38.9320 C.ar  239  PHE239     -0.0000
    179  N          6.7540   27.9750   43.4880 N.am  240  TYR240     -0.1974
    180  CA         6.5460   29.1790   44.2830 C.3   240  TYR240      0.1639
    181  C          5.2290   29.8510   43.9430 C.2   240  TYR240      0.2290
    182  O          4.8310   30.0070   42.8020 O.2   240  TYR240     -0.2864
    183  CB         7.7090   30.1970   44.0100 C.3   240  TYR240      0.0560
    184  CG         9.0890   29.5990   44.3160 C.ar  240  TYR240     -0.0198
    185  CD1        9.7700   28.7550   43.4210 C.ar  240  TYR240     -0.0009
    186  CD2        9.6540   29.8490   45.5580 C.ar  240  TYR240     -0.0009
    187  CE1       10.9730   28.1600   43.7810 C.ar  240  TYR240      0.0417
    188  CE2       10.8440   29.2560   45.8980 C.ar  240  TYR240      0.0417
    189  CZ        11.4930   28.4140   45.0400 C.ar  240  TYR240      0.1957
    190  OH        12.6210   27.8020   45.5170 O.3   240  TYR240     -0.2866
@<TRIPOS>BOND
     1   163   162    1
     2   162   161   ar
     3   162   160   ar
     4   161   159   ar
     5   160   158   ar
     6   159   157   ar
     7   158   157   ar
     8   157   156    1
     9   178   177   ar
    10   178   176   ar
    11   177   175   ar
    12   156   153    1
    13   176   174   ar
    14   175   173   ar
    15   152   153    1
    16   153   154    1
    17   146   145   ar
    18   147   145   ar
    19   174   173   ar
    20   173   172    1
    21   134   132   ar
    22   134   133   ar
    23   145   144    1
    24   154   155    2
    25   154   164   am
    26   167   166    2
    27   132   130   ar
    28   164   165    1
    29   133   131   ar
    30   172   169    1
    31   166   168   am
    32   166   165    1
    33   182   181    2
    34   169   168    1
    35   169   170    1
    36   130   129   ar
    37   130   128   ar
    38   144   143    1
    39   185   187   ar
    40   185   184   ar
    41   179   170   am
    42   179   180    1
    43   143   140    1
    44   129   127   ar
    45   187   189   ar
    46   131   128   ar
    47   181   180    1
    48   183   180    1
    49   183   184    1
    50   170   171    2
    51   128   126   ar
    52   184   186   ar
    53   139   140    1
    54   139   137   am
    55   142   141    2
    56   140   141    1
    57   127   126   ar
    58   189   190    1
    59   189   188   ar
    60   136   137    1
    61   136   135    1
    62   141   148   am
    63   126   125    1
    64   124   123    2
    65   137   138    2
    66   186   188   ar
    67    68    67   ar
    68    67    69   ar
    69    67    66    1
    70   123   135   am
    71   123   122    1
    72    66    63    1
    73    62    63    1
    74    63    64    1
    75   148   149    1
    76   125   122    1
    77   119   120    1
    78   119   116    1
    79   122   121    1
    80   121   117   am
    81   149   150    1
    82   151   150    2
    83    64    70   am
    84    64    65    2
    85    70    71    1
    86   115   116    1
    87   115   110   am
    88   117   116    1
    89   117   118    2
    90   109   108    1
    91   109   110    1
    92   109   112    1
    93    73    72    2
    94   110   111    2
    95    74    71    1
    96    71    72    1
    97   113   112    1
    98   114   112    1
    99    72    75   am
   100    60    58   ar
   101    60    61   ar
   102    58    55   ar
   103    61    59   ar
   104    75    76    1
   105    51    50    2
   106    76    79    1
   107    76    77    1
   108    21    23   ar
   109    21    20   ar
   110    55    57   ar
   111    55    53   ar
   112    23    24   ar
   113    59    57   ar
   114    79    80    1
   115    52    53    1
   116    52    49    1
   117    57    56   ar
   118    20    19    1
   119    20    22   ar
   120    19    16    1
   121    53    54   ar
   122    50    49    1
   123    77    78    2
   124    77    81   am
   125    24    22   ar
   126   107   106    2
   127   101    99   ar
   128   103   106    1
   129   103   102    1
   130   103   104    1
   131    98    99    1
   132    98    95    1
   133    15    16    1
   134    49    48    1
   135    97    96    2
   136    81    82    1
   137    56    54   ar
   138    99   100   ar
   139    16    17    1
   140   102    96   am
   141    36    38   ar
   142    36    34   ar
   143   104   105    2
   144    96    95    1
   145    38    37   ar
   146    33    34   ar
   147    33    31   ar
   148    95    94    1
   149    34    32   ar
   150    82    85    1
   151    82    83    1
   152    17    18    2
   153    85    86    1
   154    94    92   am
   155    37    35   ar
   156    31    30   ar
   157    86    87    1
   158    83    90   am
   159    83    84    2
   160    32    35   ar
   161    32    30   ar
   162    90    91    1
   163    30    29    1
   164    25    26    1
   165    92    91    1
   166    92    93    2
   167    87    88   ar
   168    87    89   ar
   169    14    13    1
   170    29    26    1
   171    26    27    1
   172    47    46    1
   173    13    10    1
   174    10    11    1
   175    10     9    1
   176    11    12    2
   177    45    46    1
   178    45    44    1
   179    42    41    2
   180    27    28    2
   181     4     3    2
   182    43    44    1
   183    43    40    1
   184    39    40    1
   185     9     3   am
   186    41    40    1
   187     3     2    1
   188     2     5    1
   189     2     1    1
   190     5     6    1
   191     6     7    1
   192     6     8    1
