@<TRIPOS>MOLECULE
tmp/1qhwA00.pdb
 72 68 0 0 0
SMALL
GASTEIGER

@<TRIPOS>ATOM
      1  N        -19.1600    7.3550   26.0990 N.3    56  HIS56      -0.1226
      2  CA       -20.0040    6.1580   26.0720 C.3    56  HIS56       0.1752
      3  C        -20.7460    5.9860   24.7440 C.2    56  HIS56       0.2596
      4  O        -20.8190    4.8860   24.1960 O.2    56  HIS56      -0.2718
      5  CB       -21.0550    6.1960   27.1980 C.3    56  HIS56       0.0759
      6  CG       -20.5660    6.7920   28.4830 C.ar   56  HIS56       0.0818
      7  ND1      -19.2950    6.5750   28.9750 N.ar   56  HIS56      -0.2268
      8  CD2      -21.1920    7.5720   29.3970 C.ar   56  HIS56       0.1154
      9  CE1      -19.1600    7.1970   30.1340 C.ar   56  HIS56       0.1986
     10  NE2      -20.2980    7.8090   30.4130 N.ar   56  HIS56      -0.2212
     11  N        -21.3070    7.0820   24.2470 N.am   57  ASP57      -0.1960
     12  CA       -22.0780    7.0750   23.0100 C.3    57  ASP57       0.1840
     13  C        -21.9750    8.4530   22.3650 C.2    57  ASP57       0.2622
     14  O        -21.3230    9.3430   22.9030 O.2    57  ASP57      -0.2715
     15  CB       -23.5450    6.7570   23.3230 C.3    57  ASP57       0.1450
     16  CG       -24.1790    7.7820   24.2650 C.2    57  ASP57       0.3671
     17  OD1      -24.7270    8.7910   23.7770 O.co2  57  ASP57      -0.2456
     18  OD2      -24.1130    7.5800   25.4950 O.co2  57  ASP57      -0.2456
     19  N        -22.6370    8.6290   21.2260 N.am   58  ALA58      -0.1963
     20  CA       -22.5890    9.8970   20.5100 C.3    58  ALA58       0.1728
     21  C        -23.3860   11.0260   21.1670 C.2    58  ALA58       0.2616
     22  O        -23.3080   12.1700   20.7350 O.2    58  ALA58      -0.2715
     23  CB       -23.0580    9.6880   19.0860 C.3    58  ALA58       0.0334
     24  N        -24.1470   10.7040   22.2070 N.am   59  ASN59      -0.1972
     25  CA       -24.9540   11.7000   22.9070 C.3    59  ASN59       0.1688
     26  C        -24.3230   12.0940   24.2510 C.2    59  ASN59       0.2292
     27  O        -24.9050   12.8680   25.0160 O.2    59  ASN59      -0.2864
     28  CB       -26.3750   11.1620   23.1450 C.3    59  ASN59       0.1181
     29  CG       -27.0730   10.7380   21.8590 C.2    59  ASN59       0.2629
     30  OD1      -27.1620   11.5050   20.9010 O.2    59  ASN59      -0.2716
     31  ND2      -27.5840    9.5110   21.8410 N.am   59  ASN59      -0.0877
     32  N        -15.8790    4.2560   23.7220 N.3    93  ASN93      -0.1240
     33  CA       -16.5060    3.9550   22.4400 C.3    93  ASN93       0.1653
     34  C        -15.9470    4.8660   21.3410 C.2    93  ASN93       0.2266
     35  O        -16.2700    6.0530   21.2960 O.2    93  ASN93      -0.2867
     36  CB       -18.0170    4.1790   22.5800 C.3    93  ASN93       0.1155
     37  CG       -18.8090    3.6740   21.3900 C.2    93  ASN93       0.2627
     38  OD1      -18.2750    3.5020   20.2970 O.2    93  ASN93      -0.2716
     39  ND2      -20.1010    3.4540   21.6140 N.am   93  ASN93      -0.0877
     40  N        -16.4760    4.3730   18.0980 N.3    95  SER95      -0.1202
     41  CA       -17.4950    4.4760   17.0650 C.3    95  SER95       0.2020
     42  C        -18.3370    5.7150   17.3390 C.2    95  SER95       0.2618
     43  O        -18.8050    6.3710   16.4110 O.2    95  SER95      -0.2717
     44  CB       -18.3810    3.2250   17.0540 C.3    95  SER95       0.2103
     45  OG       -17.6380    2.0940   16.6260 O.3    95  SER95      -0.2182
     46  N        -18.5120    6.0390   18.6180 N.am   96  ALA96      -0.1979
     47  CA       -19.2940    7.2110   19.0060 C.3    96  ALA96       0.1597
     48  C        -18.5960    8.5030   18.5750 C.2    96  ALA96       0.2287
     49  O        -19.2500    9.4680   18.1810 O.2    96  ALA96      -0.2864
     50  CB       -19.5210    7.2170   20.5170 C.3    96  ALA96       0.0319
     51  N        -19.2390    8.7540   14.9060 N.3    99  ALA99      -0.1245
     52  CA       -20.6370    9.0860   14.6470 C.3    99  ALA99       0.1562
     53  C        -20.9690   10.5330   15.0130 C.2    99  ALA99       0.2260
     54  O        -21.8960   11.1190   14.4610 O.2    99  ALA99      -0.2867
     55  CB       -21.5520    8.1220   15.4070 C.3    99  ALA99       0.0290
     56  N        -21.6290   13.4630   12.5210 N.3   102  LYS102     -0.1231
     57  CA       -22.9180   13.7340   11.9010 C.3   102  LYS102      0.1693
     58  C        -23.7970   14.6160   12.7800 C.2   102  LYS102      0.2591
     59  O        -24.8840   15.0290   12.3740 O.2   102  LYS102     -0.2718
     60  CB       -23.6210   12.4120   11.5800 C.3   102  LYS102      0.0285
     61  CG       -22.8740   11.5860   10.5350 C.3   102  LYS102      0.0035
     62  CD       -23.5640   10.2670   10.2350 C.3   102  LYS102      0.0206
     63  CE       -23.4750    9.3100   11.4140 C.3   102  LYS102      0.1093
     64  NZ       -24.1340    8.0000   11.1280 N.3   102  LYS102     -0.1314
     65  N        -23.3080   14.9140   13.9800 N.am  103  ILE103     -0.1980
     66  CA       -24.0290   15.7530   14.9330 C.3   103  ILE103      0.1595
     67  C        -23.4340   17.1580   14.9630 C.2   103  ILE103      0.2287
     68  O        -24.1580   18.1500   15.0930 O.2   103  ILE103     -0.2864
     69  CB       -23.9660   15.1610   16.3590 C.3   103  ILE103      0.0276
     70  CG1      -24.7700   13.8590   16.4230 C.3   103  ILE103      0.0022
     71  CG2      -24.4880   16.1690   17.3620 C.3   103  ILE103      0.0022
     72  CD1      -24.7930   13.2190   17.8050 C.3   103  ILE103      0.0001
@<TRIPOS>BOND
     1    62    61    1
     2    62    63    1
     3    61    60    1
     4    64    63    1
     5    60    57    1
     6    57    56    1
     7    57    58    1
     8    59    58    2
     9    58    65   am
    10    65    66    1
    11    54    53    2
    12    52    51    1
    13    52    53    1
    14    52    55    1
    15    66    67    1
    16    66    69    1
    17    67    68    2
    18    69    70    1
    19    69    71    1
    20    43    42    2
    21    70    72    1
    22    45    44    1
    23    44    41    1
    24    41    42    1
    25    41    40    1
    26    42    46   am
    27    49    48    2
    28    48    47    1
    29    46    47    1
    30    47    50    1
    31    23    20    1
    32    38    37    2
    33    20    21    1
    34    20    19    1
    35    22    21    2
    36    30    29    2
    37    21    24   am
    38    19    13   am
    39    35    34    2
    40    34    33    1
    41    37    39   am
    42    37    36    1
    43    31    29   am
    44    29    28    1
    45    24    25    1
    46    13    14    2
    47    13    12    1
    48    33    36    1
    49    33    32    1
    50    25    28    1
    51    25    26    1
    52    12    15    1
    53    12    11    1
    54    15    16    1
    55    17    16   ar
    56     4     3    2
    57    11     3   am
    58    26    27    2
    59    16    18   ar
    60     3     2    1
    61     2     1    1
    62     2     5    1
    63     5     6    1
    64     6     7   ar
    65     6     8   ar
    66     7     9   ar
    67     8    10   ar
    68     9    10   ar
