@<TRIPOS>MOLECULE
tmp/1qhxA00.pdb
 158 148 0 0 0
SMALL
GASTEIGER

@<TRIPOS>ATOM
      1  N         17.8360   46.7490   33.5620 N.3    12  SER12      -0.1202
      2  CA        16.8020   46.8700   32.5550 C.3    12  SER12       0.2020
      3  C         17.0180   45.8300   31.4480 C.2    12  SER12       0.2619
      4  O         18.1540   45.5700   31.0280 O.2    12  SER12      -0.2717
      5  CB        16.8150   48.2830   31.9740 C.3    12  SER12       0.2103
      6  OG        15.7910   48.4320   31.0130 O.3    12  SER12      -0.2182
      7  N         15.9170   45.2380   30.9910 N.am   13  SER13      -0.1937
      8  CA        15.9410   44.2260   29.9420 C.3    13  SER13       0.2055
      9  C         16.5250   42.8880   30.3890 C.2    13  SER13       0.2643
     10  O         16.7790   42.0140   29.5580 O.2    13  SER13      -0.2714
     11  CB        16.7110   44.7320   28.7200 C.3    13  SER13       0.2130
     12  OG        15.9610   45.6940   28.0050 O.3    13  SER13      -0.2179
     13  N         16.7430   42.7250   31.6920 N.am   14  ALA14      -0.1963
     14  CA        17.2790   41.4700   32.2070 C.3    14  ALA14       0.1728
     15  C         16.1910   40.3970   32.1330 C.2    14  ALA14       0.2617
     16  O         16.4750   39.2000   32.2310 O.2    14  ALA14      -0.2715
     17  CB        17.7600   41.6410   33.6470 C.3    14  ALA14       0.0334
     18  N         14.9460   40.8380   31.9650 N.am   15  GLY15      -0.1940
     19  CA        13.8360   39.9090   31.8560 C.3    15  GLY15       0.2014
     20  C         12.9520   39.7730   33.0810 C.2    15  GLY15       0.2639
     21  O         12.1960   38.8080   33.1920 O.2    15  GLY15      -0.2714
     22  N         13.0300   40.7390   33.9910 N.am   16  LYS16      -0.1963
     23  CA        12.2360   40.7130   35.2150 C.3    16  LYS16       0.1728
     24  C         10.7180   40.5970   35.0190 C.2    16  LYS16       0.2617
     25  O         10.0770   39.7030   35.5840 O.2    16  LYS16      -0.2715
     26  CB        12.5420   41.9530   36.0580 C.3    16  LYS16       0.0311
     27  CG        13.9950   42.0550   36.4980 C.3    16  LYS16       0.0038
     28  CD        14.1960   43.1610   37.5150 C.3    16  LYS16       0.0206
     29  CE        13.9040   44.5410   36.9380 C.3    16  LYS16       0.1093
     30  NZ        14.8640   44.8930   35.8570 N.3    16  LYS16      -0.1314
     31  N         10.1420   41.4950   34.2270 N.am   17  SER17      -0.1936
     32  CA         8.7000   41.4750   34.0070 C.3    17  SER17       0.2055
     33  C          8.2030   40.1810   33.3870 C.2    17  SER17       0.2643
     34  O          7.0850   39.7490   33.6650 O.2    17  SER17      -0.2714
     35  CB         8.2800   42.6740   33.1520 C.3    17  SER17       0.2130
     36  OG         9.0300   43.8270   33.5180 O.3    17  SER17      -0.2179
     37  N          9.0270   39.5620   32.5470 N.am   18  GLY18      -0.1954
     38  CA         8.6350   38.3080   31.9320 C.3    18  GLY18       0.1869
     39  C          8.5780   37.2380   33.0100 C.2    18  GLY18       0.2309
     40  O          7.6420   36.4370   33.0660 O.2    18  GLY18      -0.2863
     41  N          5.4720   37.6950   35.2250 N.3    21  ARG21      -0.1245
     42  CA         4.2270   37.1910   34.6490 C.3    21  ARG21       0.1563
     43  C          4.1930   35.6600   34.6510 C.2    21  ARG21       0.2260
     44  O          3.1170   35.0550   34.7420 O.2    21  ARG21      -0.2867
     45  CB         4.0300   37.7300   33.2340 C.3    21  ARG21       0.0307
     46  CG         3.8980   39.2440   33.1810 C.3    21  ARG21       0.0489
     47  CD         3.5310   39.7140   31.7860 C.3    21  ARG21       0.2205
     48  NE         3.7060   41.1520   31.6050 N.pl3  21  ARG21      -0.0865
     49  CZ         4.7430   41.7140   30.9870 C.cat  21  ARG21       0.5346
     50  NH1        5.7150   40.9600   30.4720 N.pl3  21  ARG21       0.1354
     51  NH2        4.8080   43.0390   30.8900 N.pl3  21  ARG21       0.1354
     52  N          9.0020   49.0560   39.2860 N.3    36  VAL36      -0.1231
     53  CA         9.4330   50.3530   38.8040 C.3    36  VAL36       0.1692
     54  C          8.5170   50.8770   37.6900 C.2    36  VAL36       0.2592
     55  O          8.1770   52.0600   37.6730 O.2    36  VAL36      -0.2718
     56  CB        10.9100   50.2940   38.3220 C.3    36  VAL36       0.0266
     57  CG1       11.0690   49.2530   37.2360 C.3    36  VAL36       0.0020
     58  CG2       11.3530   51.6560   37.8360 C.3    36  VAL36       0.0020
     59  N          8.0980   50.0030   36.7780 N.am   37  ASP37      -0.1974
     60  CA         7.2160   50.4220   35.6930 C.3    37  ASP37       0.1709
     61  C          5.8500   50.9180   36.1840 C.2    37  ASP37       0.2293
     62  O          5.3650   51.9560   35.7330 O.2    37  ASP37      -0.2864
     63  CB         6.9830   49.2810   34.6930 C.3    37  ASP37       0.1436
     64  CG         8.2450   48.8670   33.9640 C.2    37  ASP37       0.3671
     65  OD1        9.0090   49.7630   33.5480 O.co2  37  ASP37      -0.2456
     66  OD2        8.4660   47.6430   33.7930 O.co2  37  ASP37      -0.2456
     67  N          9.3460   44.0040   41.3640 N.3    92  ASP92      -0.1239
     68  CA        10.5170   43.9540   40.4920 C.3    92  ASP92       0.1674
     69  C         11.0650   45.3780   40.4620 C.2    92  ASP92       0.2266
     70  O         10.3720   46.3290   40.1140 O.2    92  ASP92      -0.2867
     71  CB        10.1920   43.4130   39.0860 C.3    92  ASP92       0.1410
     72  CG         9.7900   44.4810   38.1140 C.2    92  ASP92       0.3668
     73  OD1        8.9880   45.3600   38.4840 O.co2  92  ASP92      -0.2456
     74  OD2       10.2800   44.4300   36.9710 O.co2  92  ASP92      -0.2456
     75  N         14.9740   47.9620   40.2890 N.3    94  VAL94      -0.1245
     76  CA        16.3390   48.0960   39.7940 C.3    94  VAL94       0.1561
     77  C         17.1350   48.7940   40.8960 C.2    94  VAL94       0.2260
     78  O         16.9580   49.9910   41.1330 O.2    94  VAL94      -0.2867
     79  CB        16.4100   48.9530   38.5150 C.3    94  VAL94       0.0252
     80  CG1       17.8540   49.0770   38.0610 C.3    94  VAL94       0.0019
     81  CG2       15.5640   48.3250   37.4180 C.3    94  VAL94       0.0019
     82  N         18.3150   42.6700   23.6490 N.3   129  ARG129     -0.1245
     83  CA        16.8960   42.5530   23.9540 C.3   129  ARG129      0.1563
     84  C         16.2690   43.9350   24.0550 C.2   129  ARG129      0.2260
     85  O         15.1030   44.1280   23.7160 O.2   129  ARG129     -0.2867
     86  CB        16.7000   41.7610   25.2470 C.3   129  ARG129      0.0307
     87  CG        17.1470   40.3140   25.1180 C.3   129  ARG129      0.0489
     88  CD        17.0660   39.5560   26.4320 C.3   129  ARG129      0.2205
     89  NE        17.7090   38.2510   26.3120 N.pl3 129  ARG129     -0.0865
     90  CZ        17.8940   37.3960   27.3140 C.cat 129  ARG129      0.5346
     91  NH1       17.4840   37.6900   28.5420 N.pl3 129  ARG129      0.1354
     92  NH2       18.5060   36.2420   27.0830 N.pl3 129  ARG129      0.1354
     93  N         15.5300   44.8860   20.6580 N.3   132  ALA132     -0.1231
     94  CA        14.4210   44.0540   20.1960 C.3   132  ALA132      0.1694
     95  C         13.0750   44.5380   20.7260 C.2   132  ALA132      0.2591
     96  O         12.0480   44.4480   20.0400 O.2   132  ALA132     -0.2718
     97  CB        14.6480   42.6020   20.6180 C.3   132  ALA132      0.0304
     98  N         13.0890   45.0470   21.9340 N.am  133  ARG133     -0.1980
     99  CA        11.8600   45.5240   22.5750 C.3   133  ARG133      0.1597
    100  C         11.3010   46.7090   21.8100 C.2   133  ARG133      0.2287
    101  O         10.1840   47.1840   22.1030 O.2   133  ARG133     -0.2864
    102  CB        12.1270   45.9170   24.0220 C.3   133  ARG133      0.0334
    103  CG        11.2290   45.1650   25.0050 C.3   133  ARG133      0.0492
    104  CD        11.0590   45.8920   26.3360 C.3   133  ARG133      0.2205
    105  NE        12.3030   45.9560   27.1110 N.pl3 133  ARG133     -0.0865
    106  CZ        12.3530   46.1890   28.4270 C.cat 133  ARG133      0.5346
    107  NH1       11.2330   46.3830   29.1350 N.pl3 133  ARG133      0.1354
    108  NH2       13.4900   46.2480   29.1330 N.pl3 133  ARG133      0.1354
    109  N         12.7140   50.9590   23.4920 N.3   136  ARG136     -0.1245
    110  CA        13.5490   51.3520   24.6380 C.3   136  ARG136      0.1563
    111  C         14.7360   52.2340   24.2500 C.2   136  ARG136      0.2260
    112  O         15.4090   51.9910   23.2310 O.2   136  ARG136     -0.2867
    113  CB        14.1070   50.1230   25.3350 C.3   136  ARG136      0.0307
    114  CG        13.0750   49.4450   26.2320 C.3   136  ARG136      0.0489
    115  CD        13.4580   49.4700   27.7110 C.3   136  ARG136      0.2205
    116  NE        12.3750   49.0050   28.5870 N.pl3 136  ARG136     -0.0865
    117  CZ        12.5640   48.2390   29.6670 C.cat 136  ARG136      0.5346
    118  NH1       13.7920   47.8400   30.0230 N.pl3 136  ARG136      0.1354
    119  NH2       11.5750   47.8160   30.4660 N.pl3 136  ARG136      0.1354
    120  N         20.5270   51.8620   28.5310 N.3   140  MET140     -0.1245
    121  CA        20.1520   51.5280   29.8980 C.3   140  MET140      0.1570
    122  C         20.5780   50.1120   30.3200 C.2   140  MET140      0.2261
    123  O         21.2040   49.9230   31.3700 O.2   140  MET140     -0.2867
    124  CB        18.6390   51.6960   30.0650 C.3   140  MET140      0.0387
    125  CG        18.2250   52.1750   31.4410 C.3   140  MET140      0.0595
    126  SD        16.4600   52.5230   31.5440 S.3   140  MET140     -0.1393
    127  CE        16.2970   53.8250   30.2860 C.3   140  MET140      0.0692
    128  N         19.2040   34.9450   33.0280 N.3   160  THR160     -0.1218
    129  CA        18.4410   34.8010   31.7980 C.3   160  THR160      0.1862
    130  C         19.2650   34.7640   30.5120 C.2   160  THR160      0.2287
    131  O         18.6930   34.6600   29.4260 O.2   160  THR160     -0.2866
    132  CB        17.4120   35.9340   31.6660 C.3   160  THR160      0.1770
    133  OG1       18.0980   37.1870   31.5590 O.3   160  THR160     -0.2211
    134  CG2       16.5040   35.9650   32.8800 C.3   160  THR160      0.0375
    135  N         18.6880   31.0560   29.8610 N.3   163  LYS163     -0.1231
    136  CA        17.5190   30.3910   30.4210 C.3   163  LYS163      0.1693
    137  C         16.2670   31.2070   30.1410 C.2   163  LYS163      0.2592
    138  O         16.2670   32.4280   30.2920 O.2   163  LYS163     -0.2718
    139  CB        17.6890   30.1880   31.9250 C.3   163  LYS163      0.0285
    140  CG        19.0090   29.5460   32.2870 C.3   163  LYS163      0.0035
    141  CD        18.9830   28.9210   33.6700 C.3   163  LYS163      0.0206
    142  CE        18.2010   27.6140   33.6650 C.3   163  LYS163      0.1093
    143  NZ        18.8090   26.6200   32.7320 N.3   163  LYS163     -0.1314
    144  N         15.2030   30.5290   29.7230 N.am  164  GLU164     -0.1966
    145  CA        13.9370   31.1920   29.4210 C.3   164  GLU164      0.1733
    146  C         13.2830   31.7430   30.6910 C.2   164  GLU164      0.2617
    147  O         13.5730   31.2900   31.8040 O.2   164  GLU164     -0.2715
    148  CB        12.9820   30.2080   28.7470 C.3   164  GLU164      0.0429
    149  CG        13.4820   29.6290   27.4340 C.3   164  GLU164      0.1163
    150  CD        13.5860   30.6680   26.3330 C.2   164  GLU164      0.3649
    151  OE1       12.6520   31.4930   26.2020 O.co2 164  GLU164     -0.2457
    152  OE2       14.5920   30.6530   25.5900 O.co2 164  GLU164     -0.2457
    153  N         12.3950   32.7190   30.5210 N.am  165  SER165     -0.1950
    154  CA        11.6970   33.3090   31.6570 C.3   165  SER165      0.1924
    155  C         10.9310   32.2570   32.4360 C.2   165  SER165      0.2314
    156  O         11.0180   32.2070   33.6580 O.2   165  SER165     -0.2863
    157  CB        10.7330   34.4030   31.1930 C.3   165  SER165      0.2116
    158  OG        11.4420   35.5830   30.8610 O.3   165  SER165     -0.2180
@<TRIPOS>BOND
     1    96    95    2
     2    94    97    1
     3    94    93    1
     4    94    95    1
     5    95    98   am
     6   100   101    2
     7   100    99    1
     8    98    99    1
     9    99   102    1
    10   112   111    2
    11   109   110    1
    12    82    83    1
    13    85    84    2
    14    83    84    1
    15    83    86    1
    16   102   103    1
    17   111   110    1
    18   110   113    1
    19   103   104    1
    20    87    86    1
    21    87    88    1
    22   113   114    1
    23   152   150   ar
    24   151   150   ar
    25   114   115    1
    26    89    88    1
    27    89    90    2
    28   150   149    1
    29   104   105    1
    30    92    90    1
    31   105   106    1
    32    90    91    1
    33   149   148    1
    34   115   116    1
    35    12    11    1
    36   106   108    1
    37   106   107    2
    38   120   121    1
    39   116   117    1
    40    11     8    1
    41   148   145    1
    42   108   118    1
    43   145   144    1
    44   145   146    1
    45   131   130    2
    46    10     9    2
    47   117   118    1
    48   117   119    2
    49   144   137   am
    50   135   136    1
    51   121   124    1
    52   121   122    1
    53     8     9    1
    54     8     7    1
    55   124   125    1
    56   137   138    2
    57   137   136    1
    58   127   126    1
    59   122   123    2
    60     9    13   am
    61   136   139    1
    62    50    49    1
    63   130   129    1
    64   153   146   am
    65   153   154    1
    66   146   147    2
    67   158   157    1
    68    51    49    1
    69    49    48    2
    70     7     3   am
    71     6     5    1
    72     4     3    2
    73   157   154    1
    74   125   126    1
    75     3     2    1
    76   133   132    1
    77    48    47    1
    78   154   155    1
    79   132   129    1
    80   132   134    1
    81    13    14    1
    82    47    46    1
    83   129   128    1
    84    19    18    1
    85    19    20    1
    86   139   140    1
    87    38    37    1
    88    38    39    1
    89    18    15   am
    90     5     2    1
    91    15    14    1
    92    15    16    2
    93    14    17    1
    94   140   141    1
    95   155   156    2
    96    37    33   am
    97     2     1    1
    98   143   142    1
    99    39    40    2
   100    20    21    2
   101    20    22   am
   102    35    36    1
   103    35    32    1
   104    46    45    1
   105    45    42    1
   106    33    34    2
   107    33    32    1
   108    65    64   ar
   109   142   141    1
   110    66    64   ar
   111    64    63    1
   112    22    23    1
   113    32    31    1
   114    31    24   am
   115    42    43    1
   116    42    41    1
   117    43    44    2
   118    63    60    1
   119    24    23    1
   120    24    25    2
   121    23    26    1
   122    60    61    1
   123    60    59    1
   124    62    61    2
   125    30    29    1
   126    26    27    1
   127    27    28    1
   128    59    54   am
   129    29    28    1
   130    74    72   ar
   131    57    56    1
   132    81    79    1
   133    55    54    2
   134    54    53    1
   135    58    56    1
   136    80    79    1
   137    72    73   ar
   138    72    71    1
   139    56    53    1
   140    79    76    1
   141    53    52    1
   142    71    68    1
   143    76    75    1
   144    76    77    1
   145    70    69    2
   146    69    68    1
   147    68    67    1
   148    77    78    2
