@<TRIPOS>MOLECULE
tmp/1qhyA00.pdb
 120 112 0 0 0
SMALL
GASTEIGER

@<TRIPOS>ATOM
      1  N         17.7010   46.8080   33.5360 N.3    12  SER12      -0.1202
      2  CA        16.6980   46.8960   32.4900 C.3    12  SER12       0.2020
      3  C         16.9520   45.8460   31.4020 C.2    12  SER12       0.2619
      4  O         18.1000   45.5900   31.0110 O.2    12  SER12      -0.2717
      5  CB        16.7150   48.2970   31.8730 C.3    12  SER12       0.2103
      6  OG        15.7710   48.3930   30.8220 O.3    12  SER12      -0.2182
      7  N         15.8670   45.2540   30.9180 N.am   13  SER13      -0.1937
      8  CA        15.9180   44.2260   29.8850 C.3    13  SER13       0.2055
      9  C         16.5190   42.8980   30.3500 C.2    13  SER13       0.2643
     10  O         16.8010   42.0260   29.5310 O.2    13  SER13      -0.2714
     11  CB        16.6860   44.7310   28.6630 C.3    13  SER13       0.2130
     12  OG        15.9280   45.6960   27.9630 O.3    13  SER13      -0.2179
     13  N         16.7130   42.7360   31.6550 N.am   14  ALA14      -0.1963
     14  CA        17.2680   41.4910   32.1660 C.3    14  ALA14       0.1728
     15  C         16.2050   40.3910   32.1040 C.2    14  ALA14       0.2617
     16  O         16.5260   39.2080   32.1710 O.2    14  ALA14      -0.2715
     17  CB        17.7710   41.6760   33.6040 C.3    14  ALA14       0.0334
     18  N         14.9400   40.7880   31.9800 N.am   15  GLY15      -0.1940
     19  CA        13.8630   39.8160   31.8900 C.3    15  GLY15       0.2014
     20  C         12.9440   39.7050   33.0940 C.2    15  GLY15       0.2639
     21  O         12.1540   38.7640   33.1850 O.2    15  GLY15      -0.2714
     22  N         13.0290   40.6560   34.0170 N.am   16  LYS16      -0.1963
     23  CA        12.1930   40.6510   35.2140 C.3    16  LYS16       0.1728
     24  C         10.6850   40.5160   34.9480 C.2    16  LYS16       0.2617
     25  O         10.0380   39.5850   35.4440 O.2    16  LYS16      -0.2715
     26  CB        12.4720   41.9090   36.0380 C.3    16  LYS16       0.0311
     27  CG        13.9390   42.0440   36.4310 C.3    16  LYS16       0.0038
     28  CD        14.1900   43.1680   37.4390 C.3    16  LYS16       0.0206
     29  CE        13.9170   44.5450   36.8580 C.3    16  LYS16       0.1093
     30  NZ        14.6550   44.7320   35.5880 N.3    16  LYS16      -0.1314
     31  N         10.1230   41.4370   34.1680 N.am   17  SER17      -0.1936
     32  CA         8.6910   41.3990   33.8700 C.3    17  SER17       0.2055
     33  C          8.2040   40.0510   33.3580 C.2    17  SER17       0.2643
     34  O          7.1500   39.5720   33.7790 O.2    17  SER17      -0.2714
     35  CB         8.3300   42.4820   32.8530 C.3    17  SER17       0.2130
     36  OG         8.8440   43.7340   33.2650 O.3    17  SER17      -0.2179
     37  N          8.9600   39.4550   32.4370 N.am   18  GLY18      -0.1954
     38  CA         8.5820   38.1610   31.8940 C.3    18  GLY18       0.1869
     39  C          8.5340   37.1380   33.0130 C.2    18  GLY18       0.2309
     40  O          7.5980   36.3480   33.1070 O.2    18  GLY18      -0.2863
     41  N          8.3320   50.3020   37.4600 N.3    37  ASP37      -0.1239
     42  CA         7.5990   50.7170   36.2740 C.3    37  ASP37       0.1674
     43  C          6.1430   51.0840   36.5730 C.2    37  ASP37       0.2266
     44  O          5.6500   52.0980   36.0850 O.2    37  ASP37      -0.2867
     45  CB         7.6600   49.6230   35.2030 C.3    37  ASP37       0.1410
     46  CG         8.9960   49.5990   34.4770 C.2    37  ASP37       0.3668
     47  OD1       10.0060   50.0250   35.0710 O.co2  37  ASP37      -0.2456
     48  OD2        9.0430   49.1430   33.3150 O.co2  37  ASP37      -0.2456
     49  N          9.1570   44.1010   41.4590 N.3    92  ASP92      -0.1239
     50  CA        10.1060   44.1540   40.3600 C.3    92  ASP92       0.1674
     51  C         10.8530   45.4870   40.4440 C.2    92  ASP92       0.2266
     52  O         10.3130   46.5280   40.0850 O.2    92  ASP92      -0.2867
     53  CB         9.3000   44.0600   39.0680 C.3    92  ASP92       0.1410
     54  CG        10.0750   44.4730   37.8640 C.2    92  ASP92       0.3668
     55  OD1       11.1460   45.0930   38.0200 O.co2  92  ASP92      -0.2456
     56  OD2        9.5990   44.1820   36.7520 O.co2  92  ASP92      -0.2456
     57  N         18.4000   42.7750   23.6200 N.3   129  ARG129     -0.1245
     58  CA        16.9890   42.6280   23.9410 C.3   129  ARG129      0.1563
     59  C         16.3380   44.0030   24.0290 C.2   129  ARG129      0.2260
     60  O         15.1640   44.1740   23.7000 O.2   129  ARG129     -0.2867
     61  CB        16.8290   41.8520   25.2520 C.3   129  ARG129      0.0307
     62  CG        17.2420   40.3930   25.1320 C.3   129  ARG129      0.0489
     63  CD        17.2130   39.6740   26.4730 C.3   129  ARG129      0.2205
     64  NE        17.6860   38.2980   26.3430 N.pl3 129  ARG129     -0.0865
     65  CZ        17.8210   37.4420   27.3530 C.cat 129  ARG129      0.5346
     66  NH1       17.5210   37.8060   28.5950 N.pl3 129  ARG129      0.1354
     67  NH2       18.2680   36.2150   27.1140 N.pl3 129  ARG129      0.1354
     68  N         13.0190   45.0580   21.8340 N.3   133  ARG133     -0.1245
     69  CA        11.7040   45.4370   22.3050 C.3   133  ARG133      0.1563
     70  C         11.2060   46.8130   21.8790 C.2   133  ARG133      0.2260
     71  O         10.0400   47.1330   22.0920 O.2   133  ARG133     -0.2867
     72  CB        11.5940   45.2660   23.8190 C.3   133  ARG133      0.0307
     73  CG        12.5350   46.0710   24.6620 C.3   133  ARG133      0.0489
     74  CD        11.8530   46.2470   26.0020 C.3   133  ARG133      0.2205
     75  NE        12.7380   46.1110   27.1480 N.pl3 133  ARG133     -0.0865
     76  CZ        12.3110   46.1520   28.4060 C.cat 133  ARG133      0.5346
     77  NH1       11.0210   46.3240   28.6610 N.pl3 133  ARG133      0.1354
     78  NH2       13.1710   46.0230   29.4030 N.pl3 133  ARG133      0.1354
     79  N         12.4400   51.3130   25.0570 N.3   136  ARG136     -0.1245
     80  CA        13.4740   51.5680   26.0730 C.3   136  ARG136      0.1563
     81  C         14.6310   52.3840   25.4870 C.2   136  ARG136      0.2260
     82  O         15.1520   52.0700   24.4060 O.2   136  ARG136     -0.2867
     83  CB        14.0360   50.2440   26.5920 C.3   136  ARG136      0.0307
     84  CG        14.0380   50.1590   28.1190 C.3   136  ARG136      0.0489
     85  CD        12.7430   50.6780   28.7460 C.3   136  ARG136      0.2205
     86  NE        11.6270   49.7300   28.6230 N.pl3 136  ARG136     -0.0865
     87  CZ        10.7790   49.4390   29.6180 C.cat 136  ARG136      0.5346
     88  NH1       10.9040   50.0160   30.8210 N.pl3 136  ARG136      0.1354
     89  NH2        9.7630   48.5740   29.5070 N.pl3 136  ARG136      0.1354
     90  N         19.1280   35.0150   32.9810 N.3   160  THR160     -0.1218
     91  CA        18.3440   34.8800   31.7630 C.3   160  THR160      0.1862
     92  C         19.1760   34.8130   30.4900 C.2   160  THR160      0.2287
     93  O         18.6180   34.6660   29.4040 O.2   160  THR160     -0.2866
     94  CB        17.3510   36.0420   31.6230 C.3   160  THR160      0.1770
     95  OG1       18.0720   37.2670   31.4170 O.3   160  THR160     -0.2211
     96  CG2       16.4920   36.1570   32.8770 C.3   160  THR160      0.0375
     97  N         18.6340   31.1270   29.9260 N.3   163  LYS163     -0.1231
     98  CA        17.4650   30.4810   30.5120 C.3   163  LYS163      0.1693
     99  C         16.1950   31.2460   30.1540 C.2   163  LYS163      0.2592
    100  O         16.1710   32.4750   30.2090 O.2   163  LYS163     -0.2718
    101  CB        17.6020   30.4150   32.0340 C.3   163  LYS163      0.0285
    102  CG        18.6630   29.4600   32.5210 C.3   163  LYS163      0.0035
    103  CD        18.3040   28.0270   32.1630 C.3   163  LYS163      0.0206
    104  CE        19.3580   27.0490   32.6610 C.3   163  LYS163      0.1093
    105  NZ        19.5450   27.1560   34.1380 N.3   163  LYS163     -0.1314
    106  N         15.1440   30.5220   29.7810 N.am  164  GLU164     -0.1966
    107  CA        13.8730   31.1570   29.4430 C.3   164  GLU164      0.1733
    108  C         13.2130   31.6980   30.7190 C.2   164  GLU164      0.2617
    109  O         13.5120   31.2420   31.8290 O.2   164  GLU164     -0.2715
    110  CB        12.9390   30.1530   28.7650 C.3   164  GLU164      0.0429
    111  CG        13.4130   29.6570   27.4090 C.3   164  GLU164      0.1163
    112  CD        13.4930   30.7610   26.3640 C.2   164  GLU164      0.3649
    113  OE1       12.5830   31.6220   26.3310 O.co2 164  GLU164     -0.2457
    114  OE2       14.4560   30.7600   25.5640 O.co2 164  GLU164     -0.2457
    115  N         12.3170   32.6680   30.5560 N.am  165  SER165     -0.1950
    116  CA        11.6190   33.2660   31.6930 C.3   165  SER165      0.1924
    117  C         10.8680   32.2300   32.5060 C.2   165  SER165      0.2314
    118  O         10.9670   32.2100   33.7290 O.2   165  SER165     -0.2863
    119  CB        10.6350   34.3440   31.2260 C.3   165  SER165      0.2116
    120  OG        11.3220   35.5200   30.8450 O.3   165  SER165     -0.2180
@<TRIPOS>BOND
     1    68    69    1
     2    70    71    2
     3    70    69    1
     4    69    72    1
     5    57    58    1
     6    60    59    2
     7    72    73    1
     8    58    59    1
     9    58    61    1
    10    82    81    2
    11    73    74    1
    12    79    80    1
    13    62    61    1
    14    62    63    1
    15    81    80    1
    16   114   112   ar
    17    74    75    1
    18    80    83    1
    19   113   112   ar
    20    64    63    1
    21    64    65    2
    22   112   111    1
    23    83    84    1
    24    67    65    1
    25    75    76    2
    26    65    66    1
    27   111   110    1
    28    12    11    1
    29    84    85    1
    30    76    77    1
    31    76    78    1
    32    86    85    1
    33    86    87    2
    34    11     8    1
    35   110   107    1
    36    93    92    2
    37   107   106    1
    38   107   108    1
    39    89    87    1
    40    10     9    2
    41    87    88    1
    42   106    99   am
    43     8     9    1
    44     8     7    1
    45    97    98    1
    46    99   100    2
    47    99    98    1
    48     9    13   am
    49    92    91    1
    50    98   101    1
    51   115   108   am
    52   115   116    1
    53   108   109    2
    54     6     5    1
    55   120   119    1
    56     7     3   am
    57     4     3    2
    58   119   116    1
    59     3     2    1
    60    95    94    1
    61    94    91    1
    62    94    96    1
    63    13    14    1
    64   116   117    1
    65    91    90    1
    66     5     2    1
    67    19    18    1
    68    19    20    1
    69    38    37    1
    70    38    39    1
    71    18    15   am
    72   101   102    1
    73    15    14    1
    74    15    16    2
    75   103   102    1
    76   103   104    1
    77    14    17    1
    78    37    33   am
    79     2     1    1
    80   117   118    2
    81   104   105    1
    82    35    36    1
    83    35    32    1
    84    39    40    2
    85    20    21    2
    86    20    22   am
    87    48    46   ar
    88    33    34    2
    89    33    32    1
    90    32    31    1
    91    22    23    1
    92    31    24   am
    93    46    47   ar
    94    46    45    1
    95    24    23    1
    96    24    25    2
    97    45    42    1
    98    23    26    1
    99    30    29    1
   100    26    27    1
   101    44    43    2
   102    42    43    1
   103    42    41    1
   104    27    28    1
   105    56    54   ar
   106    29    28    1
   107    54    55   ar
   108    54    53    1
   109    53    50    1
   110    52    51    2
   111    50    51    1
   112    50    49    1
