@<TRIPOS>MOLECULE
tmp/1qhyA01.pdb
 170 155 0 0 0
SMALL
GASTEIGER

@<TRIPOS>ATOM
      1  N         17.7010   46.8080   33.5360 N.3    12  SER12      -0.1217
      2  CA        16.6980   46.8960   32.4900 C.3    12  SER12       0.1889
      3  C         16.9520   45.8460   31.4020 C.2    12  SER12       0.2288
      4  O         18.1000   45.5900   31.0110 O.2    12  SER12      -0.2866
      5  CB        16.7150   48.2970   31.8730 C.3    12  SER12       0.2089
      6  OG        15.7710   48.3930   30.8220 O.3    12  SER12      -0.2183
      7  N         13.0290   40.6560   34.0170 N.3    16  LYS16      -0.1245
      8  CA        12.1930   40.6510   35.2140 C.3    16  LYS16       0.1561
      9  C         10.6850   40.5160   34.9480 C.2    16  LYS16       0.2260
     10  O         10.0380   39.5850   35.4440 O.2    16  LYS16      -0.2867
     11  CB        12.4720   41.9090   36.0380 C.3    16  LYS16       0.0271
     12  CG        13.9390   42.0440   36.4310 C.3    16  LYS16       0.0035
     13  CD        14.1900   43.1680   37.4390 C.3    16  LYS16       0.0206
     14  CE        13.9170   44.5450   36.8580 C.3    16  LYS16       0.1093
     15  NZ        14.6550   44.7320   35.5880 N.3    16  LYS16      -0.1314
     16  N          9.0540   49.2520   39.8200 N.3    36  VAL36      -0.1231
     17  CA         9.4570   50.6220   39.5960 C.3    36  VAL36       0.1692
     18  C          8.6930   51.1800   38.3890 C.2    36  VAL36       0.2592
     19  O          8.4180   52.3770   38.3150 O.2    36  VAL36      -0.2718
     20  CB        10.9820   50.7200   39.3580 C.3    36  VAL36       0.0266
     21  CG1       11.3430   50.1630   37.9910 C.3    36  VAL36       0.0020
     22  CG2       11.4250   52.1560   39.5030 C.3    36  VAL36       0.0020
     23  N          8.3320   50.3020   37.4600 N.am   37  ASP37      -0.1974
     24  CA         7.5990   50.7170   36.2740 C.3    37  ASP37       0.1709
     25  C          6.1430   51.0840   36.5730 C.2    37  ASP37       0.2293
     26  O          5.6500   52.0980   36.0850 O.2    37  ASP37      -0.2864
     27  CB         7.6600   49.6230   35.2030 C.3    37  ASP37       0.1436
     28  CG         8.9960   49.5990   34.4770 C.2    37  ASP37       0.3671
     29  OD1       10.0060   50.0250   35.0710 O.co2  37  ASP37      -0.2456
     30  OD2        9.0430   49.1430   33.3150 O.co2  37  ASP37      -0.2456
     31  N          6.1970   54.4630   38.4300 N.3    40  ILE40      -0.1245
     32  CA         6.3770   55.6170   37.5640 C.3    40  ILE40       0.1561
     33  C          5.0690   55.8920   36.8250 C.2    40  ILE40       0.2260
     34  O          4.7020   57.0380   36.5900 O.2    40  ILE40      -0.2867
     35  CB         7.5180   55.3630   36.5550 C.3    40  ILE40       0.0252
     36  CG1        8.8560   55.3470   37.3100 C.3    40  ILE40       0.0019
     37  CG2        7.4830   56.4190   35.4240 C.3    40  ILE40       0.0019
     38  CD1       10.0650   55.0210   36.4570 C.3    40  ILE40       0.0001
     39  N          8.6990   63.2650   35.7810 N.3    48  GLN48      -0.1245
     40  CA         9.7630   62.9200   34.8460 C.3    48  GLN48       0.1566
     41  C         10.5350   64.1100   34.2760 C.2    48  GLN48       0.2260
     42  O         11.4470   63.9350   33.4620 O.2    48  GLN48      -0.2867
     43  CB         9.1920   62.0700   33.7070 C.3    48  GLN48       0.0367
     44  CG         8.7900   60.6790   34.1610 C.3    48  GLN48       0.0905
     45  CD         8.1270   59.8630   33.0740 C.2    48  GLN48       0.2608
     46  OE1        8.7130   59.6210   32.0170 O.2    48  GLN48      -0.2717
     47  NE2        6.8940   59.4290   33.3300 N.am   48  GLN48      -0.0878
     48  N         12.5910   62.1680   38.5000 N.3    54  ILE54      -0.1245
     49  CA        13.3950   61.1550   37.8520 C.3    54  ILE54       0.1561
     50  C         13.7270   61.6750   36.4630 C.2    54  ILE54       0.2260
     51  O         12.8560   62.1830   35.7510 O.2    54  ILE54      -0.2867
     52  CB        12.6420   59.7980   37.7680 C.3    54  ILE54       0.0252
     53  CG1       13.5110   58.7690   37.0400 C.3    54  ILE54       0.0019
     54  CG2       11.2960   59.9770   37.0650 C.3    54  ILE54       0.0019
     55  CD1       12.9970   57.3330   37.1500 C.3    54  ILE54       0.0001
     56  N         15.6220   60.8090   32.7310 N.3    56  PHE56      -0.1241
     57  CA        16.1790   59.8150   31.8370 C.3    56  PHE56       0.1605
     58  C         17.1070   60.4940   30.8400 C.2    56  PHE56       0.2264
     59  O         16.6490   61.1910   29.9380 O.2    56  PHE56      -0.2867
     60  CB        15.0530   59.0720   31.1130 C.3    56  PHE56       0.0534
     61  CG        14.1440   58.3110   32.0380 C.ar   56  PHE56      -0.0203
     62  CD1       14.4910   57.0350   32.4780 C.ar   56  PHE56      -0.0042
     63  CD2       12.9680   58.8860   32.5120 C.ar   56  PHE56      -0.0042
     64  CE1       13.6830   56.3400   33.3800 C.ar   56  PHE56      -0.0003
     65  CE2       12.1460   58.1990   33.4170 C.ar   56  PHE56      -0.0003
     66  CZ        12.5080   56.9210   33.8510 C.ar   56  PHE56      -0.0000
     67  N         20.0140   57.2130   34.5400 N.3    62  VAL62      -0.1245
     68  CA        18.8050   57.4730   35.3150 C.3    62  VAL62       0.1561
     69  C         19.1820   58.1740   36.6170 C.2    62  VAL62       0.2260
     70  O         20.0200   57.6810   37.3700 O.2    62  VAL62      -0.2867
     71  CB        18.0540   56.1610   35.6670 C.3    62  VAL62       0.0252
     72  CG1       16.7720   56.4810   36.4300 C.3    62  VAL62       0.0019
     73  CG2       17.7320   55.3800   34.4000 C.3    62  VAL62       0.0019
     74  N         17.6830   59.9840   40.2320 N.3    64  ILE64      -0.1245
     75  CA        16.5360   60.0390   41.1260 C.3    64  ILE64       0.1561
     76  C         16.7260   61.1130   42.1900 C.2    64  ILE64       0.2260
     77  O         17.6620   61.0460   42.9870 O.2    64  ILE64      -0.2867
     78  CB        16.3180   58.6850   41.8450 C.3    64  ILE64       0.0252
     79  CG1       16.0780   57.5770   40.8200 C.3    64  ILE64       0.0019
     80  CG2       15.1420   58.7880   42.8080 C.3    64  ILE64       0.0019
     81  CD1       14.8320   57.7840   39.9850 C.3    64  ILE64       0.0001
     82  N         11.2150   62.2560   44.2040 N.3    68  PHE68      -0.1241
     83  CA        10.8900   60.9030   43.7850 C.3    68  PHE68       0.1605
     84  C         11.0660   59.9320   44.9540 C.2    68  PHE68       0.2264
     85  O         10.1910   59.1070   45.2150 O.2    68  PHE68      -0.2867
     86  CB        11.7880   60.4980   42.6090 C.3    68  PHE68       0.0534
     87  CG        11.4630   59.1470   42.0240 C.ar   68  PHE68      -0.0203
     88  CD1       11.7450   57.9720   42.7310 C.ar   68  PHE68      -0.0042
     89  CD2       10.8630   59.0470   40.7670 C.ar   68  PHE68      -0.0042
     90  CE1       11.4350   56.7290   42.2000 C.ar   68  PHE68      -0.0003
     91  CE2       10.5470   57.8020   40.2260 C.ar   68  PHE68      -0.0003
     92  CZ        10.8340   56.6430   40.9450 C.ar   68  PHE68      -0.0000
     93  N          8.4360   57.3120   46.7030 N.3    72  GLU72      -0.1245
     94  CA         8.7540   55.8910   46.6290 C.3    72  GLU72       0.1567
     95  C          8.6880   55.2820   48.0260 C.2    72  GLU72       0.2260
     96  O          8.1520   54.1850   48.2170 O.2    72  GLU72      -0.2867
     97  CB        10.1540   55.6920   46.0510 C.3    72  GLU72       0.0388
     98  CG        10.5260   54.2420   45.8330 C.3    72  GLU72       0.1160
     99  CD        11.9280   54.0800   45.2750 C.2    72  GLU72       0.3649
    100  OE1       12.7150   55.0550   45.3080 O.co2  72  GLU72      -0.2457
    101  OE2       12.2490   52.9670   44.8060 O.co2  72  GLU72      -0.2457
    102  N         12.1060   45.4550   40.8800 N.3    93  ASP93      -0.1225
    103  CA        12.8520   46.6950   41.0440 C.3    93  ASP93       0.1805
    104  C         14.2400   46.7170   40.4010 C.2    93  ASP93       0.2597
    105  O         14.7320   45.7010   39.9200 O.2    93  ASP93      -0.2718
    106  CB        12.9650   46.9700   42.5470 C.3    93  ASP93       0.1424
    107  CG        13.2970   48.4070   42.8630 C.2    93  ASP93       0.3668
    108  OD1       13.3110   49.2390   41.9380 O.co2  93  ASP93      -0.2456
    109  OD2       13.5360   48.6980   44.0550 O.co2  93  ASP93      -0.2456
    110  N         14.8550   47.8930   40.3810 N.am   94  VAL94      -0.1980
    111  CA        16.1980   48.0650   39.8370 C.3    94  VAL94       0.1595
    112  C         17.0010   48.8210   40.8910 C.2    94  VAL94       0.2287
    113  O         16.8380   50.0310   41.0630 O.2    94  VAL94      -0.2864
    114  CB        16.1970   48.8740   38.5200 C.3    94  VAL94       0.0276
    115  CG1       17.6360   49.1020   38.0480 C.3    94  VAL94       0.0022
    116  CG2       15.4100   48.1270   37.4470 C.3    94  VAL94       0.0022
    117  N         19.5180   50.6780   41.5670 N.3    96  LEU96      -0.1245
    118  CA        20.5540   51.5530   41.0280 C.3    96  LEU96       0.1561
    119  C         21.6360   51.8080   42.0730 C.2    96  LEU96       0.2260
    120  O         22.8180   51.9020   41.7440 O.2    96  LEU96      -0.2867
    121  CB        19.9500   52.8840   40.5790 C.3    96  LEU96       0.0270
    122  CG        19.0170   52.8210   39.3680 C.3    96  LEU96       0.0019
    123  CD1       18.4170   54.2020   39.1120 C.3    96  LEU96       0.0001
    124  CD2       19.7910   52.3350   38.1490 C.3    96  LEU96       0.0001
    125  N         13.0190   45.0580   21.8340 N.3   133  ARG133     -0.1245
    126  CA        11.7040   45.4370   22.3050 C.3   133  ARG133      0.1563
    127  C         11.2060   46.8130   21.8790 C.2   133  ARG133      0.2260
    128  O         10.0400   47.1330   22.0920 O.2   133  ARG133     -0.2867
    129  CB        11.5940   45.2660   23.8190 C.3   133  ARG133      0.0307
    130  CG        12.5350   46.0710   24.6620 C.3   133  ARG133      0.0489
    131  CD        11.8530   46.2470   26.0020 C.3   133  ARG133      0.2205
    132  NE        12.7380   46.1110   27.1480 N.pl3 133  ARG133     -0.0865
    133  CZ        12.3110   46.1520   28.4060 C.cat 133  ARG133      0.5346
    134  NH1       11.0210   46.3240   28.6610 N.pl3 133  ARG133      0.1354
    135  NH2       13.1710   46.0230   29.4030 N.pl3 133  ARG133      0.1354
    136  N         12.4400   51.3130   25.0570 N.3   136  ARG136     -0.1231
    137  CA        13.4740   51.5680   26.0730 C.3   136  ARG136      0.1694
    138  C         14.6310   52.3840   25.4870 C.2   136  ARG136      0.2591
    139  O         15.1520   52.0700   24.4060 O.2   136  ARG136     -0.2718
    140  CB        14.0360   50.2440   26.5920 C.3   136  ARG136      0.0321
    141  CG        14.0380   50.1590   28.1190 C.3   136  ARG136      0.0489
    142  CD        12.7430   50.6780   28.7460 C.3   136  ARG136      0.2205
    143  NE        11.6270   49.7300   28.6230 N.pl3 136  ARG136     -0.0865
    144  CZ        10.7790   49.4390   29.6180 C.cat 136  ARG136      0.5346
    145  NH1       10.9040   50.0160   30.8210 N.pl3 136  ARG136      0.1354
    146  NH2        9.7630   48.5740   29.5070 N.pl3 136  ARG136      0.1354
    147  N         14.9910   53.4130   26.2390 N.am  137  VAL137     -0.1980
    148  CA        16.0960   54.3190   25.8880 C.3   137  VAL137      0.1595
    149  C         17.3800   53.5050   25.7480 C.2   137  VAL137      0.2287
    150  O         17.8550   52.9100   26.7220 O.2   137  VAL137     -0.2864
    151  CB        16.2760   55.3690   26.9870 C.3   137  VAL137      0.0276
    152  CG1       17.4220   56.3420   26.7030 C.3   137  VAL137      0.0022
    153  CG2       15.0340   56.2380   27.1910 C.3   137  VAL137      0.0022
    154  N         20.4040   51.8620   28.6770 N.3   140  MET140     -0.1245
    155  CA        20.0760   51.4710   30.0460 C.3   140  MET140      0.1570
    156  C         20.5490   50.0570   30.3880 C.2   140  MET140      0.2261
    157  O         21.2070   49.8450   31.4090 O.2   140  MET140     -0.2867
    158  CB        18.5680   51.5580   30.2910 C.3   140  MET140      0.0387
    159  CG        17.9950   52.9540   30.2230 C.3   140  MET140      0.0595
    160  SD        16.2450   52.9780   30.6730 S.3   140  MET140     -0.1393
    161  CE        15.5410   52.2350   29.2160 C.3   140  MET140      0.0692
    162  N         23.1210   49.1890   33.5120 N.3   144  GLN144     -0.1245
    163  CA        22.6350   48.5690   34.7430 C.3   144  GLN144      0.1566
    164  C         22.9260   47.0880   34.9470 C.2   144  GLN144      0.2260
    165  O         22.7890   46.5810   36.0620 O.2   144  GLN144     -0.2867
    166  CB        21.1260   48.7840   34.8570 C.3   144  GLN144      0.0367
    167  CG        20.6860   50.1720   34.4810 C.3   144  GLN144      0.0905
    168  CD        19.1820   50.3360   34.5320 C.2   144  GLN144      0.2608
    169  OE1       18.4340   49.4080   34.2230 O.2   144  GLN144     -0.2717
    170  NE2       18.7300   51.5260   34.9040 N.am  144  GLN144     -0.0878
@<TRIPOS>BOND
     1   125   126    1
     2   127   128    2
     3   127   126    1
     4   126   129    1
     5   129   130    1
     6   139   138    2
     7   130   131    1
     8   136   137    1
     9   138   137    1
    10   138   147   am
    11   149   148    1
    12   149   150    2
    13   148   147    1
    14   148   151    1
    15   131   132    1
    16   137   140    1
    17   140   141    1
    18   152   151    1
    19   151   153    1
    20   132   133    2
    21   141   142    1
    22   133   134    1
    23   133   135    1
    24   143   142    1
    25   143   144    2
    26   154   155    1
    27   161   160    1
    28   146   144    1
    29   144   145    1
    30    59    58    2
    31   155   158    1
    32   155   156    1
    33   159   158    1
    34   159   160    1
    35   156   157    2
    36     6     5    1
    37    58    57    1
    38     4     3    2
    39    60    57    1
    40    60    61    1
    41     3     2    1
    42    57    56    1
    43     5     2    1
    44    46    45    2
    45    61    62   ar
    46    61    63   ar
    47    62    64   ar
    48     2     1    1
    49    63    65   ar
    50    45    47   am
    51    45    44    1
    52    30    28   ar
    53    64    66   ar
    54    65    66   ar
    55    42    41    2
    56   162   163    1
    57    43    44    1
    58    43    40    1
    59     7     8    1
    60   169   168    2
    61    41    40    1
    62    73    71    1
    63    28    29   ar
    64    28    27    1
    65   167   168    1
    66   167   166    1
    67   168   170   am
    68    67    68    1
    69   163   166    1
    70   163   164    1
    71    40    39    1
    72   164   165    2
    73     9     8    1
    74     9    10    2
    75    27    24    1
    76     8    11    1
    77    68    71    1
    78    68    69    1
    79    37    35    1
    80    15    14    1
    81    71    72    1
    82    51    50    2
    83    11    12    1
    84    26    25    2
    85    24    25    1
    86    24    23    1
    87    12    13    1
    88    38    36    1
    89    50    49    1
    90    35    36    1
    91    35    32    1
    92    34    33    2
    93    69    70    2
    94    33    32    1
    95    14    13    1
    96    53    55    1
    97    53    52    1
    98    54    52    1
    99   116   114    1
   100    23    18   am
   101    32    31    1
   102    52    49    1
   103    49    48    1
   104    21    20    1
   105   115   114    1
   106   124   122    1
   107    19    18    2
   108    18    17    1
   109   114   111    1
   110   123   122    1
   111    20    22    1
   112    20    17    1
   113   122   121    1
   114    17    16    1
   115   111   110    1
   116   111   112    1
   117   105   104    2
   118    81    79    1
   119    91    89   ar
   120    91    92   ar
   121    74    75    1
   122   110   104   am
   123   104   103    1
   124   121   118    1
   125    89    87   ar
   126    79    78    1
   127   102   103    1
   128   112   113    2
   129    92    90   ar
   130   118   117    1
   131   118   119    1
   132   103   106    1
   133    75    78    1
   134    75    76    1
   135   120   119    2
   136    78    80    1
   137   108   107   ar
   138    87    86    1
   139    87    88   ar
   140    76    77    2
   141    90    88   ar
   142   106   107    1
   143    86    83    1
   144   107   109   ar
   145    83    82    1
   146    83    84    1
   147   101    99   ar
   148    84    85    2
   149    99   100   ar
   150    99    98    1
   151    98    97    1
   152    97    94    1
   153    94    93    1
   154    94    95    1
   155    95    96    2
