@<TRIPOS>MOLECULE
tmp/1qi1D01.pdb
 92 87 0 0 0
SMALL
GASTEIGER

@<TRIPOS>ATOM
      1  N        -31.4400  131.1350    8.7310 N.3   102  ARG102     -0.1245
      2  CA       -30.1120  130.9200    9.2990 C.3   102  ARG102      0.1563
      3  C        -30.0330  129.5850   10.0450 C.2   102  ARG102      0.2260
      4  O        -28.9710  129.0190   10.1770 O.2   102  ARG102     -0.2867
      5  CB       -29.7370  132.0790   10.2230 C.3   102  ARG102      0.0307
      6  CG       -28.3110  132.0170   10.7360 C.3   102  ARG102      0.0489
      7  CD       -28.0270  133.1550   11.7030 C.3   102  ARG102      0.2205
      8  NE       -26.6740  133.0820   12.2580 N.pl3 102  ARG102     -0.0865
      9  CZ       -26.1810  133.9260   13.1650 C.cat 102  ARG102      0.5346
     10  NH1      -26.9190  134.9240   13.6420 N.pl3 102  ARG102      0.1354
     11  NH2      -24.9390  133.7730   13.5920 N.pl3 102  ARG102      0.1354
     12  N        -34.5720  135.0030   22.7490 N.3   153  ASN153     -0.1225
     13  CA       -34.2700  135.9090   21.6050 C.3   153  ASN153      0.1785
     14  C        -33.9240  135.1350   20.3000 C.2   153  ASN153      0.2597
     15  O        -34.0270  135.6870   19.2050 O.2   153  ASN153     -0.2718
     16  CB       -33.1470  136.8760   21.9230 C.3   153  ASN153      0.1169
     17  CG       -31.9900  136.2890   22.6870 C.2   153  ASN153      0.2627
     18  OD1      -31.9570  135.0840   22.9280 O.2   153  ASN153     -0.2716
     19  ND2      -31.0280  137.0940   23.0820 N.am  153  ASN153     -0.0877
     20  N        -33.5170  133.8940   20.4530 N.am  154  TYR154     -0.1976
     21  CA       -33.2740  132.9620   19.3180 C.3   154  TYR154      0.1639
     22  C        -33.8360  131.5940   19.7180 C.2   154  TYR154      0.2290
     23  O        -33.1480  130.6240   19.9120 O.2   154  TYR154     -0.2864
     24  CB       -31.7970  132.7560   18.9610 C.3   154  TYR154      0.0560
     25  CG       -31.1420  133.9670   18.3330 C.ar  154  TYR154     -0.0198
     26  CD1      -31.9200  134.9890   17.7630 C.ar  154  TYR154     -0.0009
     27  CD2      -29.7590  134.0530   18.3210 C.ar  154  TYR154     -0.0009
     28  CE1      -31.2930  136.1080   17.2000 C.ar  154  TYR154      0.0417
     29  CE2      -29.1320  135.1710   17.7650 C.ar  154  TYR154      0.0417
     30  CZ       -29.8950  136.2010   17.2060 C.ar  154  TYR154      0.1957
     31  OH       -29.2760  137.2980   16.6830 O.3   154  TYR154     -0.2866
     32  N        -30.7190  129.3750   17.9240 N.3   158  LEU158     -0.1245
     33  CA       -29.8340  128.8970   18.9750 C.3   158  LEU158      0.1561
     34  C        -30.2450  127.5360   19.5150 C.2   158  LEU158      0.2260
     35  O        -29.8090  127.1180   20.5800 O.2   158  LEU158     -0.2867
     36  CB       -29.7080  129.9370   20.0890 C.3   158  LEU158      0.0270
     37  CG       -28.4250  130.7980   20.0980 C.3   158  LEU158      0.0019
     38  CD1      -27.5310  130.5200   18.8910 C.3   158  LEU158      0.0001
     39  CD2      -28.7620  132.2700   20.1720 C.3   158  LEU158      0.0001
     40  N        -23.3370  129.6730   26.9570 N.3   249  GLU249     -0.1245
     41  CA       -23.1560  130.9880   26.3550 C.3   249  GLU249      0.1567
     42  C        -24.0030  131.8860   27.2200 C.2   249  GLU249      0.2260
     43  O        -25.2460  131.9070   27.1030 O.2   249  GLU249     -0.2867
     44  CB       -23.6490  131.0590   24.9140 C.3   249  GLU249      0.0388
     45  CG       -23.4890  132.4640   24.3280 C.3   249  GLU249      0.1160
     46  CD       -24.4150  132.7390   23.1530 C.2   249  GLU249      0.3649
     47  OE1      -24.9760  131.7720   22.5730 O.co2 249  GLU249     -0.2457
     48  OE2      -24.5810  133.9330   22.8100 O.co2 249  GLU249     -0.2457
     49  N        -29.6800  141.3060   22.5390 N.3   282  ARG282     -0.1231
     50  CA       -28.6910  140.4170   21.9200 C.3   282  ARG282      0.1694
     51  C        -27.4580  140.3860   22.8230 C.2   282  ARG282      0.2593
     52  O        -26.9440  141.4190   23.1950 O.2   282  ARG282     -0.2718
     53  CB       -28.2610  140.9620   20.5540 C.3   282  ARG282      0.0321
     54  CG       -29.3130  140.9650   19.4540 C.3   282  ARG282      0.0489
     55  CD       -28.8390  141.8120   18.2640 C.3   282  ARG282      0.2205
     56  NE       -27.5580  141.3870   17.7380 N.pl3 282  ARG282     -0.0865
     57  CZ       -26.4630  142.1150   17.5150 C.cat 282  ARG282      0.5346
     58  NH1      -26.3880  143.4190   17.7580 N.pl3 282  ARG282      0.1354
     59  NH2      -25.4020  141.4800   17.0440 N.pl3 282  ARG282      0.1354
     60  N        -26.9800  139.1930   23.1470 N.am  283  SER283     -0.1938
     61  CA       -25.8140  139.0550   24.0020 C.3   283  SER283      0.2055
     62  C        -24.5680  139.5740   23.3370 C.2   283  SER283      0.2643
     63  O        -23.6090  139.9730   24.0310 O.2   283  SER283     -0.2714
     64  CB       -25.5840  137.5940   24.3760 C.3   283  SER283      0.2130
     65  OG       -25.2530  136.8180   23.2400 O.3   283  SER283     -0.2179
     66  N        -24.5710  139.5700   22.0010 N.am  284  THR284     -0.1950
     67  CA       -23.4220  140.0290   21.2250 C.3   284  THR284      0.1897
     68  C        -23.5350  141.4570   20.7120 C.2   284  THR284      0.2313
     69  O        -22.7920  141.8440   19.8280 O.2   284  THR284     -0.2863
     70  CB       -23.1530  139.1100   20.0440 C.3   284  THR284      0.1794
     71  OG1      -24.3560  138.9820   19.2830 O.3   284  THR284     -0.2208
     72  CG2      -22.7030  137.7400   20.5180 C.3   284  THR284      0.0378
     73  N        -20.6210  140.6860   16.1670 N.3   435  GLN435     -0.1231
     74  CA       -21.6270  139.7910   15.6090 C.3   435  GLN435      0.1698
     75  C        -21.1070  138.3700   15.7910 C.2   435  GLN435      0.2592
     76  O        -19.9210  138.1820   16.0180 O.2   435  GLN435     -0.2718
     77  CB       -21.7690  140.0630   14.1040 C.3   435  GLN435      0.0381
     78  CG       -20.4130  140.0320   13.3740 C.3   435  GLN435      0.0905
     79  CD       -20.5160  139.9230   11.8590 C.2   435  GLN435      0.2608
     80  OE1      -19.7700  139.1460   11.2240 O.2   435  GLN435     -0.2717
     81  NE2      -21.4180  140.7040   11.2620 N.am  435  GLN435     -0.0878
     82  N        -21.9890  137.3740   15.7140 N.am  436  ARG436     -0.1980
     83  CA       -21.5350  135.9880   15.8100 C.3   436  ARG436      0.1597
     84  C        -20.6830  135.6890   14.5540 C.2   436  ARG436      0.2287
     85  O        -19.7860  134.8280   14.5910 O.2   436  ARG436     -0.2864
     86  CB       -22.7110  135.0140   15.9400 C.3   436  ARG436      0.0334
     87  CG       -22.8160  134.4130   17.3260 C.3   436  ARG436      0.0492
     88  CD       -23.7490  133.2090   17.4430 C.3   436  ARG436      0.2205
     89  NE       -25.0940  133.4430   17.0960 N.pl3 436  ARG436     -0.0865
     90  CZ       -26.0440  132.7870   16.4380 C.cat 436  ARG436      0.5346
     91  NH1      -25.9840  131.6290   15.7850 N.pl3 436  ARG436      0.1354
     92  NH2      -27.1630  133.4680   16.4340 N.pl3 436  ARG436      0.1354
@<TRIPOS>BOND
     1     1     2    1
     2     2     3    1
     3     2     5    1
     4     3     4    2
     5     5     6    1
     6     6     7    1
     7    80    79    2
     8    81    79   am
     9     7     8    1
    10    79    78    1
    11     8     9    2
    12     9    11    1
    13     9    10    1
    14    78    77    1
    15    77    74    1
    16    84    85    2
    17    84    83    1
    18    74    75    1
    19    74    73    1
    20    82    75   am
    21    82    83    1
    22    91    90    1
    23    75    76    2
    24    83    86    1
    25    86    87    1
    26    92    90    1
    27    90    89    2
    28    31    30    1
    29    59    57    1
    30    89    88    1
    31    28    30   ar
    32    28    26   ar
    33    30    29   ar
    34    87    88    1
    35    57    56    2
    36    57    58    1
    37    56    55    1
    38    26    25   ar
    39    29    27   ar
    40    32    33    1
    41    55    54    1
    42    27    25   ar
    43    25    24    1
    44    38    37    1
    45    24    21    1
    46    33    34    1
    47    33    36    1
    48    15    14    2
    49    71    70    1
    50    21    22    1
    51    21    20    1
    52    54    53    1
    53    34    35    2
    54    22    23    2
    55    69    68    2
    56    70    72    1
    57    70    67    1
    58    36    37    1
    59    37    39    1
    60    14    20   am
    61    14    13    1
    62    53    50    1
    63    68    67    1
    64    67    66    1
    65    13    16    1
    66    13    12    1
    67    50    49    1
    68    50    51    1
    69    16    17    1
    70    66    62   am
    71    47    46   ar
    72    17    18    2
    73    17    19   am
    74    48    46   ar
    75    51    60   am
    76    51    52    2
    77    60    61    1
    78    46    45    1
    79    65    64    1
    80    62    61    1
    81    62    63    2
    82    61    64    1
    83    45    44    1
    84    44    41    1
    85    41    40    1
    86    41    42    1
    87    43    42    2
