@<TRIPOS>MOLECULE
tmp/1qi2A00.pdb
 158 154 0 0 0
SMALL
GASTEIGER

@<TRIPOS>ATOM
      1  N          1.0300   50.9170   16.8480 N.3    32  HIS32      -0.1241
      2  CA         0.4660   49.8760   15.9770 C.3    32  HIS32       0.1621
      3  C         -0.4640   50.6850   15.0630 C.2    32  HIS32       0.2264
      4  O         -0.3250   51.9220   15.0680 O.2    32  HIS32      -0.2867
      5  CB        -0.2620   48.8440   16.8040 C.3    32  HIS32       0.0745
      6  CG        -0.6800   47.5590   16.1780 C.ar   32  HIS32       0.0817
      7  ND1       -1.6770   47.4700   15.2290 N.ar   32  HIS32      -0.2268
      8  CD2       -0.2700   46.2850   16.3930 C.ar   32  HIS32       0.1154
      9  CE1       -1.8530   46.2100   14.8690 C.ar   32  HIS32       0.1986
     10  NE2       -1.0050   45.4710   15.5650 N.ar   32  HIS32      -0.2212
     11  N         -6.7350   51.2680   15.0580 N.3    36  TRP36      -0.1227
     12  CA        -7.0890   50.2240   16.0000 C.3    36  TRP36       0.1737
     13  C         -6.6420   50.4850   17.4370 C.2    36  TRP36       0.2595
     14  O         -7.3170   50.0860   18.3910 O.2    36  TRP36      -0.2718
     15  CB        -6.4270   48.9020   15.5910 C.3    36  TRP36       0.0564
     16  CG        -6.8390   48.3400   14.2680 C.ar   36  TRP36       0.0003
     17  CD1       -8.1110   48.1350   13.8210 C.ar   36  TRP36       0.0946
     18  CD2       -5.9650   47.8810   13.2360 C.ar   36  TRP36       0.0152
     19  NE1       -8.0800   47.5780   12.5580 N.ar   36  TRP36      -0.2442
     20  CE2       -6.7700   47.4090   12.1800 C.ar   36  TRP36       0.0810
     21  CE3       -4.5710   47.8130   13.1020 C.ar   36  TRP36       0.0012
     22  CZ2       -6.2330   46.8950   11.0070 C.ar   36  TRP36       0.0191
     23  CZ3       -4.0410   47.2950   11.9350 C.ar   36  TRP36       0.0001
     24  CH2       -4.8680   46.8380   10.8990 C.ar   36  TRP36       0.0015
     25  N         -5.4730   51.0800   17.5610 N.am   37  TYR37      -0.1976
     26  CA        -4.8270   51.2850   18.8550 C.3    37  TYR37       0.1639
     27  C         -4.3100   52.6880   19.0450 C.2    37  TYR37       0.2290
     28  O         -3.2540   52.9220   19.6380 O.2    37  TYR37      -0.2864
     29  CB        -3.6780   50.2500   18.9360 C.3    37  TYR37       0.0560
     30  CG        -4.1750   48.8220   18.8970 C.ar   37  TYR37      -0.0198
     31  CD1       -4.9540   48.3290   19.9380 C.ar   37  TYR37      -0.0009
     32  CD2       -3.8580   47.9610   17.8570 C.ar   37  TYR37      -0.0009
     33  CE1       -5.4300   47.0330   19.9250 C.ar   37  TYR37       0.0417
     34  CE2       -4.3130   46.6540   17.8360 C.ar   37  TYR37       0.0417
     35  CZ        -5.1000   46.1930   18.8750 C.ar   37  TYR37       0.1957
     36  OH        -5.5570   44.8990   18.8740 O.3    37  TYR37      -0.2866
     37  N         -1.9740   53.5790    9.0000 N.3    63  TYR63      -0.1241
     38  CA        -2.3300   52.6730    7.9080 C.3    63  TYR63       0.1605
     39  C         -3.2030   53.4570    6.9100 C.2    63  TYR63       0.2264
     40  O         -3.9920   54.3210    7.2800 O.2    63  TYR63      -0.2867
     41  CB        -3.1530   51.4900    8.3720 C.3    63  TYR63       0.0534
     42  CG        -2.4440   50.2950    8.9450 C.ar   63  TYR63      -0.0201
     43  CD1       -1.7600   50.3590   10.1530 C.ar   63  TYR63      -0.0009
     44  CD2       -2.4960   49.0710    8.2840 C.ar   63  TYR63      -0.0009
     45  CE1       -1.1370   49.2440   10.6730 C.ar   63  TYR63       0.0417
     46  CE2       -1.8860   47.9520    8.8040 C.ar   63  TYR63       0.0417
     47  CZ        -1.2070   48.0450   10.0060 C.ar   63  TYR63       0.1957
     48  OH        -0.6000   46.9220   10.5060 O.3    63  TYR63      -0.2866
     49  N         -6.9290   48.8520    5.3700 N.3    66  SER66      -0.1217
     50  CA        -7.4000   48.1830    6.5730 C.3    66  SER66       0.1889
     51  C         -8.1350   49.0980    7.5420 C.2    66  SER66       0.2288
     52  O         -7.9110   49.0350    8.7680 O.2    66  SER66      -0.2866
     53  CB        -6.2430   47.4970    7.3030 C.3    66  SER66       0.2089
     54  OG        -5.3080   46.8650    6.4620 O.3    66  SER66      -0.2183
     55  N          1.4370   54.3190    6.1360 N.3    98  HIS98      -0.1241
     56  CA         1.6470   52.9040    6.3640 C.3    98  HIS98       0.1621
     57  C          0.9850   51.9350    5.4060 C.2    98  HIS98       0.2264
     58  O          0.0120   51.2970    5.7670 O.2    98  HIS98      -0.2867
     59  CB         1.2990   52.6260    7.8300 C.3    98  HIS98       0.0745
     60  CG         1.8360   51.3560    8.4040 C.ar   98  HIS98       0.0817
     61  ND1        3.0140   51.2860    9.1120 N.ar   98  HIS98      -0.2268
     62  CD2        1.3230   50.0970    8.3840 C.ar   98  HIS98       0.1154
     63  CE1        3.2020   50.0480    9.5250 C.ar   98  HIS98       0.1986
     64  NE2        2.1970   49.2970    9.0810 N.ar   98  HIS98      -0.2212
     65  N          0.6460   48.4950    3.2990 N.3   100  LEU100     -0.1245
     66  CA         0.9240   47.1060    3.6100 C.3   100  LEU100      0.1561
     67  C          0.0920   46.2440    2.6700 C.2   100  LEU100      0.2260
     68  O          0.6170   45.7580    1.6650 O.2   100  LEU100     -0.2867
     69  CB         0.6310   46.7540    5.0800 C.3   100  LEU100      0.0270
     70  CG         1.0420   45.3370    5.4930 C.3   100  LEU100      0.0019
     71  CD1        2.5410   45.1190    5.3230 C.3   100  LEU100      0.0001
     72  CD2        0.6330   45.0560    6.9350 C.3   100  LEU100      0.0001
     73  N          5.5430   52.7950    4.1030 N.3   135  ASN135     -0.1225
     74  CA         6.0130   51.7880    5.0410 C.3   135  ASN135      0.1785
     75  C          6.6530   50.5510    4.4330 C.2   135  ASN135      0.2597
     76  O          7.8470   50.2990    4.6200 O.2   135  ASN135     -0.2718
     77  CB         4.8310   51.3570    5.9330 C.3   135  ASN135      0.1169
     78  CG         5.0970   50.1370    6.7680 C.2   135  ASN135      0.2627
     79  OD1        6.0590   50.0820    7.5460 O.2   135  ASN135     -0.2716
     80  ND2        4.2420   49.1250    6.6330 N.am  135  ASN135     -0.0877
     81  N          5.8360   49.7350    3.7570 N.am  136  GLU136     -0.1979
     82  CA         6.3360   48.4690    3.2640 C.3   136  GLU136      0.1602
     83  C          5.8470   48.0430    1.8940 C.2   136  GLU136      0.2287
     84  O          4.9080   47.2580    1.7680 O.2   136  GLU136     -0.2864
     85  CB         5.9730   47.3230    4.2450 C.3   136  GLU136      0.0415
     86  CG         6.8680   47.2870    5.4700 C.3   136  GLU136      0.1163
     87  CD         6.7490   46.0510    6.3340 C.2   136  GLU136      0.3649
     88  OE1        5.8430   45.2260    6.1390 O.co2 136  GLU136     -0.2457
     89  OE2        7.5990   45.8910    7.2470 O.co2 136  GLU136     -0.2457
     90  N         12.3150   40.9760   11.6560 N.3   199  TYR199     -0.1241
     91  CA        11.6860   40.3340   12.8130 C.3   199  TYR199      0.1605
     92  C         12.6790   39.3000   13.3330 C.2   199  TYR199      0.2264
     93  O         13.2020   38.5190   12.5330 O.2   199  TYR199     -0.2867
     94  CB        10.2980   39.7620   12.4730 C.3   199  TYR199      0.0534
     95  CG         9.3520   40.9600   12.5600 C.ar  199  TYR199     -0.0201
     96  CD1        9.2750   41.8580   11.5090 C.ar  199  TYR199     -0.0009
     97  CD2        8.6180   41.2080   13.7070 C.ar  199  TYR199     -0.0009
     98  CE1        8.4630   42.9740   11.5850 C.ar  199  TYR199      0.0417
     99  CE2        7.7950   42.3220   13.7900 C.ar  199  TYR199      0.0417
    100  CZ         7.7340   43.2000   12.7330 C.ar  199  TYR199      0.1957
    101  OH         6.9300   44.3160   12.8190 O.3   199  TYR199     -0.2866
    102  N         11.0150   49.8870   11.4870 N.3   225  GLU225     -0.1245
    103  CA        10.1140   48.8890   12.0640 C.3   225  GLU225      0.1567
    104  C         10.9330   47.6140   12.3180 C.2   225  GLU225      0.2260
    105  O         11.6110   47.1560   11.4080 O.2   225  GLU225     -0.2867
    106  CB         8.8970   48.5640   11.1700 C.3   225  GLU225      0.0388
    107  CG         8.0000   47.5000   11.8380 C.3   225  GLU225      0.1160
    108  CD         7.6140   46.4840   10.8060 C.2   225  GLU225      0.3649
    109  OE1        8.3880   45.8040   10.1280 O.co2 225  GLU225     -0.2457
    110  OE2        6.2580   46.2710   10.6100 O.co2 225  GLU225     -0.2457
    111  N          7.8490   37.3280   11.6950 N.3   231  ALA231     -0.1231
    112  CA         7.4310   38.3710   10.7660 C.3   231  ALA231      0.1694
    113  C          5.9450   38.6710   10.7630 C.2   231  ALA231      0.2593
    114  O          5.5440   39.7070   10.2080 O.2   231  ALA231     -0.2718
    115  CB         7.8970   37.9830    9.3600 C.3   231  ALA231      0.0304
    116  N          5.0790   37.8390   11.3420 N.am  232  THR232     -0.1939
    117  CA         3.6550   38.1320   11.3820 C.3   232  THR232      0.2028
    118  C          3.3110   39.1180   12.5060 C.2   232  THR232      0.2642
    119  O          2.1650   39.5670   12.6320 O.2   232  THR232     -0.2714
    120  CB         2.8490   36.8520   11.7050 C.3   232  THR232      0.1808
    121  OG1        3.4420   36.2830   12.8800 O.3   232  THR232     -0.2208
    122  CG2        2.9320   35.8430   10.5690 C.3   232  THR232      0.0379
    123  N          4.2860   39.3410   13.3740 N.am  233  GLY233     -0.1954
    124  CA         4.0820   40.1990   14.5480 C.3   233  GLY233      0.1869
    125  C          3.7740   39.3100   15.7560 C.2   233  GLY233      0.2309
    126  O          3.5830   39.8000   16.8640 O.2   233  GLY233     -0.2863
    127  N          8.3790   47.7480   16.8700 N.3   259  TRP259     -0.1241
    128  CA         6.9540   47.4530   16.6470 C.3   259  TRP259      0.1605
    129  C          6.4940   46.4540   17.6990 C.2   259  TRP259      0.2264
    130  O          7.0730   45.3600   17.7510 O.2   259  TRP259     -0.2867
    131  CB         6.8620   46.7900   15.2600 C.3   259  TRP259      0.0550
    132  CG         5.4320   46.5170   14.8720 C.ar  259  TRP259      0.0003
    133  CD1        4.6990   45.3880   15.0950 C.ar  259  TRP259      0.0946
    134  CD2        4.5610   47.4270   14.1930 C.ar  259  TRP259      0.0152
    135  NE1        3.4190   45.5380   14.5970 N.ar  259  TRP259     -0.2442
    136  CE2        3.3220   46.7770   14.0280 C.ar  259  TRP259      0.0810
    137  CE3        4.7060   48.7240   13.6940 C.ar  259  TRP259      0.0012
    138  CZ2        2.2320   47.3870   13.3980 C.ar  259  TRP259      0.0191
    139  CZ3        3.6300   49.3230   13.0680 C.ar  259  TRP259      0.0001
    140  CH2        2.4040   48.6570   12.9160 C.ar  259  TRP259      0.0015
    141  N         -2.3670   44.6190   22.2490 N.3   264  LYS264     -0.1245
    142  CA        -2.8220   43.4280   21.5210 C.3   264  LYS264      0.1561
    143  C         -2.0720   42.1930   21.9920 C.2   264  LYS264      0.2260
    144  O         -0.8850   42.2180   22.3050 O.2   264  LYS264     -0.2867
    145  CB        -2.6480   43.6280   20.0120 C.3   264  LYS264      0.0271
    146  CG        -3.0190   42.3920   19.2010 C.3   264  LYS264      0.0035
    147  CD        -2.9900   42.7020   17.6990 C.3   264  LYS264      0.0206
    148  CE        -3.5450   41.5020   16.9380 C.3   264  LYS264      0.1093
    149  NZ        -3.7660   41.8040   15.4990 N.3   264  LYS264     -0.1314
    150  N         -0.2730   39.7120   20.9930 N.3   266  GLU266     -0.1245
    151  CA         0.6210   39.1750   19.9680 C.3   266  GLU266      0.1567
    152  C          2.0350   39.3780   20.4930 C.2   266  GLU266      0.2260
    153  O          2.2850   40.3540   21.2100 O.2   266  GLU266     -0.2867
    154  CB         0.3780   39.8040   18.6000 C.3   266  GLU266      0.0388
    155  CG         0.6880   41.2920   18.5220 C.3   266  GLU266      0.1160
    156  CD         0.4190   41.8630   17.1420 C.2   266  GLU266      0.3649
    157  OE1       -0.2190   41.1790   16.3160 O.co2 266  GLU266     -0.2457
    158  OE2        0.8350   43.0050   16.8520 O.co2 266  GLU266     -0.2457
@<TRIPOS>BOND
     1    68    67    2
     2    84    83    2
     3    83    82    1
     4    67    66    1
     5    82    81    1
     6    82    85    1
     7    65    66    1
     8    66    69    1
     9    81    75   am
    10    73    74    1
    11    85    86    1
    12    75    76    2
    13    75    74    1
    14    74    77    1
    15    69    70    1
    16    71    70    1
    17    49    50    1
    18    57    58    2
    19    57    56    1
    20    86    87    1
    21    70    72    1
    22    77    78    1
    23    55    56    1
    24    88    87   ar
    25    87    89   ar
    26    56    59    1
    27    54    53    1
    28    50    53    1
    29    50    51    1
    30    80    78   am
    31    78    79    2
    32    39    40    2
    33    39    38    1
    34    51    52    2
    35    59    60    1
    36    38    41    1
    37    38    37    1
    38    44    46   ar
    39    44    42   ar
    40    41    42    1
    41    62    60   ar
    42    62    64   ar
    43    60    61   ar
    44    46    47   ar
    45    42    43   ar
    46    64    63   ar
    47    61    63   ar
    48   115   112    1
    49    47    48    1
    50    47    45   ar
    51   109   108   ar
    52    43    45   ar
    53   114   113    2
    54   122   120    1
    55   110   108   ar
    56   113   112    1
    57   113   116   am
    58   112   111    1
    59   108   107    1
    60    24    22   ar
    61    24    23   ar
    62    22    20   ar
    63   106   107    1
    64   106   103    1
    65   116   117    1
    66   117   120    1
    67   117   118    1
    68   105   104    2
    69   102   103    1
    70    96    98   ar
    71    96    95   ar
    72    98   100   ar
    73    90    91    1
    74   120   121    1
    75    23    21   ar
    76   103   104    1
    77    20    19   ar
    78    20    18   ar
    79    94    95    1
    80    94    91    1
    81   118   119    2
    82   118   123   am
    83    93    92    2
    84    19    17   ar
    85    95    97   ar
    86   100   101    1
    87   100    99   ar
    88    91    92    1
    89   140   139   ar
    90   140   138   ar
    91   139   137   ar
    92    21    18   ar
    93    18    16   ar
    94   123   124    1
    95   138   136   ar
    96   137   134   ar
    97    97    99   ar
    98    17    16   ar
    99   136   134   ar
   100   136   135   ar
   101   134   132   ar
   102    16    15    1
   103   124   125    1
   104   135   133   ar
   105     9     7   ar
   106     9    10   ar
   107   132   133   ar
   108   132   131    1
   109    11    12    1
   110     3     4    2
   111     3     2    1
   112     7     6   ar
   113   131   128    1
   114   149   148    1
   115    10     8   ar
   116    15    12    1
   117   125   126    2
   118     2     5    1
   119     2     1    1
   120    12    13    1
   121     6     8   ar
   122     6     5    1
   123   157   156   ar
   124   128   127    1
   125   128   129    1
   126   158   156   ar
   127   148   147    1
   128   156   155    1
   129    13    25   am
   130    13    14    2
   131    25    26    1
   132   129   130    2
   133   147   146    1
   134    34    32   ar
   135    34    35   ar
   136    32    30   ar
   137   155   154    1
   138   154   151    1
   139    26    29    1
   140    26    27    1
   141    36    35    1
   142    35    33   ar
   143    30    29    1
   144    30    31   ar
   145    27    28    2
   146   146   145    1
   147    33    31   ar
   148   151   152    1
   149   151   150    1
   150   145   142    1
   151   152   153    2
   152   142   143    1
   153   142   141    1
   154   143   144    2
