@<TRIPOS>MOLECULE
tmp/1qinA00.pdb
 133 125 0 0 0
SMALL
GASTEIGER

@<TRIPOS>ATOM
      1  N         -4.5120   -8.7670   31.1940 N.3   111  ASN111     -0.1240
      2  CA        -4.7940   -8.1580   32.4840 C.3   111  ASN111      0.1653
      3  C         -4.8950   -9.1340   33.6490 C.2   111  ASN111      0.2266
      4  O         -5.1630   -8.6850   34.7730 O.2   111  ASN111     -0.2867
      5  CB        -6.0570   -7.2810   32.4040 C.3   111  ASN111      0.1155
      6  CG        -5.7290   -6.0960   31.4770 C.2   111  ASN111      0.2627
      7  OD1       -4.8780   -5.2820   31.8310 O.2   111  ASN111     -0.2716
      8  ND2       -6.3830   -6.0530   30.3300 N.am  111  ASN111     -0.0877
      9  N          0.5930  -11.1530   32.9390 N.3   115  ARG115     -0.1245
     10  CA         0.2430   -9.8360   32.4260 C.3   115  ARG115      0.1563
     11  C          1.2670   -9.2500   31.4630 C.2   115  ARG115      0.2260
     12  O          2.4470   -9.6270   31.4340 O.2   115  ARG115     -0.2867
     13  CB         0.0650   -8.8500   33.6000 C.3   115  ARG115      0.0307
     14  CG        -1.0190   -9.3150   34.5840 C.3   115  ARG115      0.0489
     15  CD        -1.5390   -8.1340   35.3870 C.3   115  ARG115      0.2205
     16  NE        -0.4890   -7.5040   36.1740 N.pl3 115  ARG115     -0.0865
     17  CZ        -0.6630   -6.3820   36.8710 C.cat 115  ARG115      0.5346
     18  NH1       -1.8310   -5.7550   36.8900 N.pl3 115  ARG115      0.1354
     19  NH2        0.3520   -5.8950   37.5640 N.pl3 115  ARG115      0.1354
     20  N         -4.2740   -2.2950   27.4830 N.3   119  HIS119     -0.1241
     21  CA        -5.4740   -1.8340   26.7860 C.3   119  HIS119      0.1621
     22  C         -5.1390   -0.8640   25.6530 C.2   119  HIS119      0.2264
     23  O         -4.0090   -0.4030   25.5120 O.2   119  HIS119     -0.2867
     24  CB        -6.3770   -1.0480   27.7540 C.3   119  HIS119      0.0745
     25  CG        -5.7320    0.0830   28.5210 C.ar  119  HIS119      0.0817
     26  ND1       -5.2230   -0.1170   29.7900 N.ar  119  HIS119     -0.2268
     27  CD2       -5.5080    1.3960   28.2380 C.ar  119  HIS119      0.1154
     28  CE1       -4.7450    1.0120   30.2760 C.ar  119  HIS119      0.1986
     29  NE2       -4.8630    1.9300   29.3320 N.ar  119  HIS119     -0.2212
     30  N        -15.1940   -1.4350   33.9480 N.3   143  LYS143     -0.1245
     31  CA       -15.2230   -0.3630   34.9400 C.3   143  LYS143      0.1561
     32  C        -16.0890    0.7830   34.4330 C.2   143  LYS143      0.2260
     33  O        -15.7590    1.4030   33.4130 O.2   143  LYS143     -0.2867
     34  CB       -13.8010    0.1500   35.2300 C.3   143  LYS143      0.0271
     35  CG       -13.7350    1.3580   36.1800 C.3   143  LYS143      0.0035
     36  CD       -12.5550    2.2630   35.8760 C.3   143  LYS143      0.0206
     37  CE       -12.4100    3.3960   36.8770 C.3   143  LYS143      0.1093
     38  NZ       -13.4540    4.4530   36.6670 N.3   143  LYS143     -0.1314
     39  N        -14.5580    1.9140   40.6690 N.3   148  GLY148     -0.1210
     40  CA       -13.1200    1.7760   40.7240 C.3   148  GLY148      0.1956
     41  C        -12.4120    2.9360   41.4010 C.2   148  GLY148      0.2612
     42  O        -13.0120    3.6770   42.1860 O.2   148  GLY148     -0.2717
     43  N        -11.1170    3.0990   41.1040 N.am  149  LYS149     -0.1965
     44  CA       -10.3270    4.1130   41.7980 C.3   149  LYS149      0.1728
     45  C        -10.2860    5.4690   41.1370 C.2   149  LYS149      0.2616
     46  O        -10.3940    6.5130   41.7850 O.2   149  LYS149     -0.2715
     47  CB        -8.9050    3.5350   41.9810 C.3   149  LYS149      0.0311
     48  CG        -8.9150    2.2900   42.8620 C.3   149  LYS149      0.0038
     49  CD        -7.7550    1.3530   42.5840 C.3   149  LYS149      0.0206
     50  CE        -7.5930    0.3530   43.7240 C.3   149  LYS149      0.1093
     51  NZ        -6.2910   -0.3780   43.6250 N.3   149  LYS149     -0.1314
     52  N        -10.1210    5.4990   39.8150 N.am  150  MET150     -0.1977
     53  CA       -10.0280    6.7470   39.0770 C.3   150  MET150      0.1605
     54  C        -11.3820    7.0770   38.4700 C.2   150  MET150      0.2287
     55  O        -11.8190    6.4010   37.5390 O.2   150  MET150     -0.2864
     56  CB        -8.9410    6.6270   38.0010 C.3   150  MET150      0.0413
     57  CG        -7.5690    6.2850   38.5950 C.3   150  MET150      0.0598
     58  SD        -6.3910    5.9240   37.2760 S.3   150  MET150     -0.1393
     59  CE        -4.8570    6.5370   37.9360 C.3   150  MET150      0.0692
     60  N        -13.2640    7.8980   34.1520 N.3   153  LEU153     -0.1245
     61  CA       -12.7710    7.1190   33.0060 C.3   153  LEU153      0.1561
     62  C        -13.4300    5.7400   33.0710 C.2   153  LEU153      0.2260
     63  O        -13.8100    5.2780   34.1490 O.2   153  LEU153     -0.2867
     64  CB       -11.2530    7.0630   32.9640 C.3   153  LEU153      0.0270
     65  CG       -10.4570    6.2540   33.9770 C.3   153  LEU153      0.0019
     66  CD1      -10.3870    4.7820   33.5980 C.3   153  LEU153      0.0001
     67  CD2       -9.0390    6.8200   34.0930 C.3   153  LEU153      0.0001
     68  N        -13.7350    1.4860   31.4230 N.3   155  PHE155     -0.1241
     69  CA       -13.1250    0.4130   30.6490 C.3   155  PHE155      0.1605
     70  C        -14.2750   -0.5070   30.1860 C.2   155  PHE155      0.2264
     71  O        -15.0700   -0.9430   31.0160 O.2   155  PHE155     -0.2867
     72  CB       -12.1240   -0.4390   31.3930 C.3   155  PHE155      0.0534
     73  CG       -10.7560    0.1350   31.5670 C.ar  155  PHE155     -0.0203
     74  CD1       -9.8410    0.1240   30.5290 C.ar  155  PHE155     -0.0042
     75  CD2      -10.3780    0.6620   32.7920 C.ar  155  PHE155     -0.0042
     76  CE1       -8.5700    0.6340   30.7110 C.ar  155  PHE155     -0.0003
     77  CE2       -9.1060    1.1900   32.9650 C.ar  155  PHE155     -0.0003
     78  CZ        -8.1990    1.1680   31.9180 C.ar  155  PHE155     -0.0000
     79  N         -9.4700   -5.0220   26.8640 N.3   163  TRP163     -0.1241
     80  CA        -9.9710   -3.8430   27.5700 C.3   163  TRP163      0.1605
     81  C         -9.7740   -2.5920   26.7220 C.2   163  TRP163      0.2264
     82  O         -8.7170   -2.3750   26.1140 O.2   163  TRP163     -0.2867
     83  CB        -9.2520   -3.6310   28.8900 C.3   163  TRP163      0.0550
     84  CG        -9.4540   -4.6150   29.9960 C.ar  163  TRP163      0.0003
     85  CD1      -10.0040   -5.8590   29.9620 C.ar  163  TRP163      0.0946
     86  CD2       -9.0920   -4.3880   31.3720 C.ar  163  TRP163      0.0152
     87  NE1      -10.0080   -6.4170   31.2160 N.ar  163  TRP163     -0.2442
     88  CE2       -9.4440   -5.5280   32.0970 C.ar  163  TRP163      0.0810
     89  CE3       -8.4980   -3.3010   32.0380 C.ar  163  TRP163      0.0012
     90  CZ2       -9.2280   -5.6470   33.4780 C.ar  163  TRP163      0.0191
     91  CZ3       -8.2760   -3.4220   33.3990 C.ar  163  TRP163      0.0001
     92  CH2       -8.6330   -4.5810   34.0980 C.ar  163  TRP163      0.0015
     93  N        -10.1620    1.5330   27.0330 N.3   165  GLU165     -0.1245
     94  CA       -10.4090    2.6460   27.9660 C.3   165  GLU165      0.1567
     95  C        -11.1620    3.7510   27.2340 C.2   165  GLU165      0.2260
     96  O        -10.9200    3.9850   26.0470 O.2   165  GLU165     -0.2867
     97  CB        -9.0870    3.2030   28.5140 C.3   165  GLU165      0.0388
     98  CG        -9.3470    4.2930   29.5570 C.3   165  GLU165      0.1160
     99  CD        -8.0970    4.9730   30.0680 C.2   165  GLU165      0.3649
    100  OE1       -7.2140    5.3180   29.2680 O.co2 165  GLU165     -0.2457
    101  OE2       -7.9770    5.1650   31.2900 O.co2 165  GLU165     -0.2457
    102  N        -11.9210    7.6980   27.6220 N.3   167  LEU167     -0.1245
    103  CA       -11.4480    8.8110   28.4390 C.3   167  LEU167      0.1561
    104  C        -11.7530   10.1480   27.7850 C.2   167  LEU167      0.2260
    105  O        -11.8580   10.2290   26.5630 O.2   167  LEU167     -0.2867
    106  CB        -9.9140    8.6660   28.6310 C.3   167  LEU167      0.0270
    107  CG        -9.1300    8.8250   27.3130 C.3   167  LEU167      0.0019
    108  CD1       -8.0600    9.8920   27.4540 C.3   167  LEU167      0.0001
    109  CD2       -8.5090    7.5120   26.8690 C.3   167  LEU167      0.0001
    110  N         -9.1840   15.1140   32.8270 N.3   172  MET172     -0.1245
    111  CA        -8.2050   14.2890   33.5150 C.3   172  MET172      0.1570
    112  C         -7.2990   15.0360   34.4820 C.2   172  MET172      0.2261
    113  O         -6.6290   14.4090   35.3000 O.2   172  MET172     -0.2867
    114  CB        -7.2950   13.6060   32.4730 C.3   172  MET172      0.0387
    115  CG        -8.0780   12.7400   31.5010 C.3   172  MET172      0.0595
    116  SD        -8.8580   11.3410   32.3210 S.3   172  MET172     -0.1393
    117  CE        -8.2380   10.0210   31.2720 C.3   172  MET172      0.0692
    118  N         -7.1060   14.2580   38.4040 N.3   175  LEU175     -0.1231
    119  CA        -6.7740   12.9160   38.8450 C.3   175  LEU175      0.1693
    120  C         -5.3910   12.8370   39.4840 C.2   175  LEU175      0.2591
    121  O         -5.0970   11.8420   40.1550 O.2   175  LEU175     -0.2718
    122  CB        -6.8320   11.9120   37.6880 C.3   175  LEU175      0.0284
    123  CG        -8.2340   11.5080   37.2120 C.3   175  LEU175      0.0019
    124  CD1       -8.1410   10.7470   35.8920 C.3   175  LEU175      0.0001
    125  CD2       -8.9470   10.6870   38.2710 C.3   175  LEU175      0.0001
    126  N         -4.5400   13.8210   39.2600 N.am  176  MET176     -0.1979
    127  CA        -3.1870   13.8070   39.7790 C.3   176  MET176      0.1605
    128  C         -2.9350   14.8520   40.8600 C.2   176  MET176      0.2287
    129  O         -3.4000   15.9980   40.6630 O.2   176  MET176     -0.2864
    130  CB        -2.2040   14.0770   38.6280 C.3   176  MET176      0.0413
    131  CG        -1.4510   12.8070   38.2380 C.3   176  MET176      0.0598
    132  SD        -0.3730   13.1620   36.8360 S.3   176  MET176     -0.1393
    133  CE        -1.5890   13.4950   35.5650 C.3   176  MET176      0.0692
@<TRIPOS>BOND
     1    23    22    2
     2    22    21    1
     3    96    95    2
     4    82    81    2
     5   105   104    2
     6    81    80    1
     7    21    20    1
     8    21    24    1
     9    79    80    1
    10   109   107    1
    11    93    94    1
    12    95    94    1
    13   107   108    1
    14   107   106    1
    15    80    83    1
    16   102   103    1
    17    24    25    1
    18   104   103    1
    19    94    97    1
    20    27    25   ar
    21    27    29   ar
    22   103   106    1
    23    97    98    1
    24    25    26   ar
    25    83    84    1
    26   100    99   ar
    27    29    28   ar
    28    98    99    1
    29    26    28   ar
    30    85    84   ar
    31    85    87   ar
    32    84    86   ar
    33    99   101   ar
    34    70    69    1
    35    70    71    2
    36     8     6   am
    37    74    76   ar
    38    74    73   ar
    39    69    72    1
    40    69    68    1
    41    76    78   ar
    42     1     2    1
    43    87    88   ar
    44   117   116    1
    45    86    89   ar
    46    86    88   ar
    47    72    73    1
    48    12    11    2
    49    11    10    1
    50     6     7    2
    51     6     5    1
    52   115   116    1
    53   115   114    1
    54    73    75   ar
    55    78    77   ar
    56    89    91   ar
    57    88    90   ar
    58     5     2    1
    59    10     9    1
    60    10    13    1
    61   114   111    1
    62     2     3    1
    63    75    77   ar
    64   110   111    1
    65    64    61    1
    66    64    65    1
    67    61    62    1
    68    61    60    1
    69    62    63    2
    70    91    92   ar
    71    33    32    2
    72    90    92   ar
    73   111   112    1
    74    66    65    1
    75    13    14    1
    76     3     4    2
    77    30    31    1
    78    65    67    1
    79    32    31    1
    80   112   113    2
    81    14    15    1
    82    31    34    1
    83    34    35    1
    84    15    16    1
    85   133   132    1
    86    36    35    1
    87    36    37    1
    88   124   123    1
    89    16    17    2
    90    38    37    1
    91   132   131    1
    92    17    18    1
    93    17    19    1
    94   123   122    1
    95   123   125    1
    96    58    59    1
    97    58    57    1
    98    55    54    2
    99   122   119    1
   100    56    57    1
   101    56    53    1
   102   131   130    1
   103   118   119    1
   104    54    53    1
   105   130   127    1
   106   119   120    1
   107    53    52    1
   108   126   120   am
   109   126   127    1
   110   120   121    2
   111   127   128    1
   112    52    45   am
   113   129   128    2
   114    39    40    1
   115    40    41    1
   116    43    41   am
   117    43    44    1
   118    45    46    2
   119    45    44    1
   120    41    42    2
   121    44    47    1
   122    47    48    1
   123    49    48    1
   124    49    50    1
   125    51    50    1
