@<TRIPOS>MOLECULE
tmp/1qinA01.pdb
 123 112 0 0 0
SMALL
GASTEIGER

@<TRIPOS>ATOM
      1  N          0.3020    1.0730   13.9760 N.3    26  GLN26      -0.1245
      2  CA        -0.6820    0.0540   14.3090 C.3    26  GLN26       0.1566
      3  C         -0.4310   -0.6080   15.6520 C.2    26  GLN26       0.2260
      4  O          0.6800   -0.6170   16.1850 O.2    26  GLN26      -0.2867
      5  CB        -0.6290   -1.0590   13.2300 C.3    26  GLN26       0.0367
      6  CG         0.8260   -1.5610   13.0510 C.3    26  GLN26       0.0905
      7  CD         0.9500   -2.7850   12.1790 C.2    26  GLN26       0.2608
      8  OE1        1.2190   -3.8990   12.6170 O.2    26  GLN26      -0.2717
      9  NE2        0.7580   -2.6020   10.8730 N.am   26  GLN26      -0.0878
     10  N         -1.6030   -4.5130   17.0890 N.3    28  MET28      -0.1245
     11  CA        -2.1900   -5.7510   16.5730 C.3    28  MET28       0.1570
     12  C         -2.7640   -6.5880   17.7110 C.2    28  MET28       0.2261
     13  O         -2.1040   -6.8310   18.7210 O.2    28  MET28      -0.2867
     14  CB        -1.1810   -6.6020   15.7880 C.3    28  MET28       0.0387
     15  CG        -1.7870   -7.8380   15.0930 C.3    28  MET28       0.0595
     16  SD        -2.0340   -9.2800   16.1710 S.3    28  MET28      -0.1393
     17  CE        -0.5810  -10.2470   15.7430 C.3    28  MET28       0.0692
     18  N         -5.0990  -10.3180   18.3040 N.3    30  ARG30      -0.1245
     19  CA        -5.6960  -11.5050   17.6770 C.3    30  ARG30       0.1563
     20  C         -7.1520  -11.6340   18.1030 C.2    30  ARG30       0.2260
     21  O         -7.4560  -11.3840   19.2720 O.2    30  ARG30      -0.2867
     22  CB        -4.9190  -12.7640   18.1020 C.3    30  ARG30       0.0307
     23  CG        -3.4750  -12.7090   17.5670 C.3    30  ARG30       0.0489
     24  CD        -2.7400  -13.9800   18.0130 C.3    30  ARG30       0.2205
     25  NE        -1.3300  -14.0090   17.5770 N.pl3  30  ARG30      -0.0865
     26  CZ        -0.3330  -13.4290   18.2130 C.cat  30  ARG30       0.5346
     27  NH1       -0.5560  -12.7290   19.3340 N.pl3  30  ARG30       0.1354
     28  NH2        0.9170  -13.5240   17.7440 N.pl3  30  ARG30       0.1354
     29  N         -6.8910   -8.0570    4.4300 N.3    53  CYS53      -0.1235
     30  CA        -5.8410   -8.8070    3.7450 C.3    53  CYS53       0.1677
     31  C         -6.0300  -10.2920    4.0200 C.2    53  CYS53       0.2270
     32  O         -6.3080  -10.6570    5.1760 O.2    53  CYS53      -0.2867
     33  CB        -4.4560   -8.4110    4.2660 C.3    53  CYS53       0.0956
     34  SG        -3.9950   -6.6760    4.1190 S.3    53  CYS53      -0.0801
     35  N         -4.3150  -14.2700    3.5490 N.3    55  PHE55      -0.1241
     36  CA        -3.1040  -15.0290    3.2580 C.3    55  PHE55       0.1605
     37  C         -3.4620  -16.5060    3.3330 C.2    55  PHE55       0.2264
     38  O         -3.2730  -17.1780    4.3360 O.2    55  PHE55      -0.2867
     39  CB        -1.9750  -14.6740    4.2410 C.3    55  PHE55       0.0534
     40  CG        -1.5470  -13.2270    4.1300 C.ar   55  PHE55      -0.0203
     41  CD1       -0.5810  -12.8360    3.2230 C.ar   55  PHE55      -0.0042
     42  CD2       -2.1520  -12.2580    4.9140 C.ar   55  PHE55      -0.0042
     43  CE1       -0.2260  -11.5030    3.1040 C.ar   55  PHE55      -0.0003
     44  CE2       -1.7980  -10.9270    4.8020 C.ar   55  PHE55      -0.0003
     45  CZ        -0.8260  -10.5450    3.8990 C.ar   55  PHE55      -0.0000
     46  N         -0.8450  -19.1390    4.6340 N.3    58  MET58      -0.1245
     47  CA        -0.5940  -19.1300    6.0650 C.3    58  MET58       0.1570
     48  C         -1.8690  -19.2090    6.8860 C.2    58  MET58       0.2261
     49  O         -1.8440  -19.1680    8.1250 O.2    58  MET58      -0.2867
     50  CB         0.2410  -17.8860    6.4240 C.3    58  MET58       0.0387
     51  CG         1.5430  -17.8610    5.6090 C.3    58  MET58       0.0595
     52  SD         2.6080  -16.4790    5.9810 S.3    58  MET58      -0.1393
     53  CE         1.9720  -15.2060    4.9060 C.3    58  MET58       0.0692
     54  N         -4.5880  -17.0680    7.4750 N.3    60  PHE60      -0.1241
     55  CA        -4.9960  -15.9820    8.3670 C.3    60  PHE60       0.1605
     56  C         -5.4490  -14.7930    7.5260 C.2    60  PHE60       0.2264
     57  O         -5.0990  -14.6990    6.3530 O.2    60  PHE60      -0.2867
     58  CB        -3.9340  -15.5630    9.3730 C.3    60  PHE60       0.0534
     59  CG        -2.7350  -14.8240    8.8620 C.ar   60  PHE60      -0.0203
     60  CD1       -2.7380  -13.4370    8.7790 C.ar   60  PHE60      -0.0042
     61  CD2       -1.5950  -15.5040    8.4610 C.ar   60  PHE60      -0.0042
     62  CE1       -1.6350  -12.7570    8.3030 C.ar   60  PHE60      -0.0003
     63  CE2       -0.4790  -14.8170    7.9900 C.ar   60  PHE60      -0.0003
     64  CZ        -0.5020  -13.4450    7.9070 C.ar   60  PHE60      -0.0000
     65  N         -6.2170  -10.3720    7.9610 N.3    62  LEU62      -0.1245
     66  CA        -5.9150   -9.1840    8.7310 C.3    62  LEU62       0.1561
     67  C         -6.9760   -8.1320    8.4150 C.2    62  LEU62       0.2260
     68  O         -7.3540   -8.0300    7.2470 O.2    62  LEU62      -0.2867
     69  CB        -4.5540   -8.5920    8.3440 C.3    62  LEU62       0.0270
     70  CG        -3.3530   -9.5180    8.5330 C.3    62  LEU62       0.0019
     71  CD1       -2.0750   -8.8060    8.1000 C.3    62  LEU62       0.0001
     72  CD2       -3.2510   -9.9860    9.9810 C.3    62  LEU62       0.0001
     73  N         -7.7620   -4.1030    9.0840 N.3    64  PHE64      -0.1241
     74  CA        -7.2690   -2.8400    9.6130 C.3    64  PHE64       0.1605
     75  C         -8.4560   -1.9040    9.8430 C.2    64  PHE64       0.2264
     76  O         -9.1980   -1.6160    8.9000 O.2    64  PHE64      -0.2867
     77  CB        -6.2880   -2.1980    8.6120 C.3    64  PHE64       0.0534
     78  CG        -4.9010   -2.8030    8.7400 C.ar   64  PHE64      -0.0203
     79  CD1       -4.5710   -3.9450    8.0480 C.ar   64  PHE64      -0.0042
     80  CD2       -3.9620   -2.2050    9.5630 C.ar   64  PHE64      -0.0042
     81  CE1       -3.3060   -4.5160    8.1750 C.ar   64  PHE64      -0.0003
     82  CE2       -2.6990   -2.7630    9.7010 C.ar   64  PHE64      -0.0003
     83  CZ        -2.3840   -3.9140    9.0070 C.ar   64  PHE64      -0.0000
     84  N         -3.3590   -0.0130   -0.3140 N.3    81  ILE81      -0.1245
     85  CA        -2.4520   -0.5920    0.6780 C.3    81  ILE81       0.1561
     86  C         -1.4450    0.4280    1.1920 C.2    81  ILE81       0.2260
     87  O         -1.1780    0.4700    2.4010 O.2    81  ILE81      -0.2867
     88  CB        -1.7160   -1.8300    0.1150 C.3    81  ILE81       0.0252
     89  CG1       -2.7350   -2.8960   -0.2890 C.3    81  ILE81       0.0019
     90  CG2       -0.7510   -2.4010    1.1440 C.3    81  ILE81       0.0019
     91  CD1       -2.1710   -4.1080   -1.0050 C.3    81  ILE81       0.0001
     92  N         -1.6200    1.5080    5.2020 N.3    85  LEU85      -0.1245
     93  CA        -0.4740    1.2370    6.0700 C.3    85  LEU85       0.1561
     94  C          0.3650    2.4520    6.3790 C.2    85  LEU85       0.2260
     95  O          1.3970    2.3100    7.0600 O.2    85  LEU85      -0.2867
     96  CB         0.3360    0.0770    5.4780 C.3    85  LEU85       0.0270
     97  CG        -0.2960   -1.3080    5.6600 C.3    85  LEU85       0.0019
     98  CD1        0.5450   -2.3870    4.9980 C.3    85  LEU85       0.0001
     99  CD2       -0.4510   -1.6350    7.1400 C.3    85  LEU85       0.0001
    100  N         -5.0510   -3.3790   14.0440 N.3    92  GLU92      -0.1245
    101  CA        -4.9180   -4.5520   13.1860 C.3    92  GLU92       0.1567
    102  C         -5.4710   -5.7770   13.9050 C.2    92  GLU92       0.2260
    103  O         -5.0010   -6.1460   14.9860 O.2    92  GLU92      -0.2867
    104  CB        -3.4440   -4.7860   12.8010 C.3    92  GLU92       0.0388
    105  CG        -3.2010   -6.0300   11.9460 C.3    92  GLU92       0.1160
    106  CD        -1.7100   -6.3350   11.7750 C.2    92  GLU92       0.3649
    107  OE1       -0.8490   -5.6770   12.3850 O.co2  92  GLU92      -0.2457
    108  OE2       -1.3650   -7.2420   10.9970 O.co2  92  GLU92      -0.2457
    109  N         -6.0670   -9.7130   13.8600 N.3    94  THR94      -0.1218
    110  CA        -5.5960  -10.9050   13.1530 C.3    94  THR94       0.1862
    111  C         -6.5610  -12.0510   13.3990 C.2    94  THR94       0.2287
    112  O         -6.8000  -12.4100   14.5470 O.2    94  THR94      -0.2866
    113  CB        -4.1980  -11.2840   13.6850 C.3    94  THR94       0.1770
    114  OG1       -3.2880  -10.2370   13.3090 O.3    94  THR94      -0.2211
    115  CG2       -3.7100  -12.6210   13.1540 C.3    94  THR94       0.0375
    116  N         -6.8190  -15.9460   12.8480 N.3    96  ASN96      -0.1240
    117  CA        -6.2520  -17.2360   12.4700 C.3    96  ASN96       0.1653
    118  C         -7.4440  -18.1300   12.1110 C.2    96  ASN96       0.2266
    119  O         -8.3130  -18.3350   12.9650 O.2    96  ASN96      -0.2867
    120  CB        -5.4220  -17.8700   13.5910 C.3    96  ASN96       0.1155
    121  CG        -4.1340  -17.0820   13.7810 C.2    96  ASN96       0.2627
    122  OD1       -3.3590  -16.9970   12.8260 O.2    96  ASN96      -0.2716
    123  ND2       -3.8970  -16.5140   14.9530 N.am   96  ASN96      -0.0877
@<TRIPOS>BOND
     1    91    89    1
     2    84    85    1
     3    89    88    1
     4    88    85    1
     5    88    90    1
     6    85    86    1
     7    86    87    2
     8    43    41   ar
     9    43    45   ar
    10    41    40   ar
    11    36    37    1
    12    36    35    1
    13    36    39    1
    14    37    38    2
    15    30    31    1
    16    30    33    1
    17    30    29    1
    18    45    44   ar
    19    31    32    2
    20    34    33    1
    21    40    39    1
    22    40    42   ar
    23    46    47    1
    24    44    42   ar
    25    53    52    1
    26    98    97    1
    27    92    93    1
    28    96    97    1
    29    96    93    1
    30    51    52    1
    31    51    50    1
    32    97    99    1
    33    47    50    1
    34    47    48    1
    35    93    94    1
    36    57    56    2
    37    94    95    2
    38    48    49    2
    39    68    67    2
    40    54    55    1
    41    56    55    1
    42    64    63   ar
    43    64    62   ar
    44    65    66    1
    45    63    61   ar
    46    79    81   ar
    47    79    78   ar
    48    71    70    1
    49    81    83   ar
    50    62    60   ar
    51    69    70    1
    52    69    66    1
    53    55    58    1
    54    67    66    1
    55    61    59   ar
    56    70    72    1
    57    77    78    1
    58    77    74    1
    59    78    80   ar
    60    60    59   ar
    61    59    58    1
    62    76    75    2
    63    83    82   ar
    64    73    74    1
    65    80    82   ar
    66    74    75    1
    67     9     7   am
    68   108   106   ar
    69   106   105    1
    70   106   107   ar
    71   105   104    1
    72   118   117    1
    73   118   119    2
    74     7     8    2
    75     7     6    1
    76   117   116    1
    77   117   120    1
    78   104   101    1
    79   122   121    2
    80     6     5    1
    81   110   111    1
    82   110   113    1
    83   110   109    1
    84   115   113    1
    85   101   102    1
    86   101   100    1
    87     5     2    1
    88   114   113    1
    89   111   112    2
    90   120   121    1
    91   121   123   am
    92   102   103    2
    93     1     2    1
    94     2     3    1
    95    15    14    1
    96    15    16    1
    97     3     4    2
    98    17    16    1
    99    14    11    1
   100    11    10    1
   101    11    12    1
   102    23    24    1
   103    23    22    1
   104    25    24    1
   105    25    26    2
   106    19    22    1
   107    19    20    1
   108    19    18    1
   109    12    13    2
   110    28    26    1
   111    20    21    2
   112    26    27    1
