@<TRIPOS>MOLECULE
tmp/1qipD00.pdb
 128 117 0 0 0
SMALL
GASTEIGER

@<TRIPOS>ATOM
      1  N         64.3600   48.3400   38.2740 N.3    35  MET35      -0.1245
      2  CA        64.3020   49.7320   37.8260 C.3    35  MET35       0.1570
      3  C         64.4050   49.8540   36.3180 C.2    35  MET35       0.2261
      4  O         65.3340   49.3150   35.7170 O.2    35  MET35      -0.2867
      5  CB        65.4360   50.5580   38.4640 C.3    35  MET35       0.0387
      6  CG        65.2870   52.0710   38.2590 C.3    35  MET35       0.0595
      7  SD        65.8490   52.6150   36.6270 S.3    35  MET35      -0.1393
      8  CE        67.3900   53.4550   37.0240 C.3    35  MET35       0.0692
      9  N         64.0560   52.8810   33.1360 N.3    37  ARG37      -0.1245
     10  CA        63.9110   54.3110   32.8480 C.3    37  ARG37       0.1563
     11  C         62.7840   54.5040   31.8500 C.2    37  ARG37       0.2260
     12  O         62.6570   53.6880   30.9290 O.2    37  ARG37      -0.2867
     13  CB        65.2160   54.8460   32.2530 C.3    37  ARG37       0.0307
     14  CG        66.3370   54.8400   33.2960 C.3    37  ARG37       0.0489
     15  CD        67.6090   55.3090   32.6090 C.3    37  ARG37       0.2205
     16  NE        68.7560   55.2480   33.4980 N.pl3  37  ARG37      -0.0865
     17  CZ        69.5400   54.1840   33.6390 C.cat  37  ARG37       0.5346
     18  NH1       69.2720   53.0630   32.9850 N.pl3  37  ARG37       0.1354
     19  NH2       70.5760   54.2920   34.4720 N.pl3  37  ARG37       0.1354
     20  N         54.1600   54.5830   45.5280 N.3    58  GLN58      -0.1245
     21  CA        55.0280   55.6550   46.0250 C.3    58  GLN58       0.1566
     22  C         55.5310   56.5000   44.8690 C.2    58  GLN58       0.2260
     23  O         55.8270   55.9670   43.8030 O.2    58  GLN58      -0.2867
     24  CB        56.2190   55.0560   46.7710 C.3    58  GLN58       0.0367
     25  CG        57.1790   56.0840   47.3640 C.3    58  GLN58       0.0905
     26  CD        56.4660   56.8510   48.4680 C.2    58  GLN58       0.2608
     27  OE1       56.0960   56.2540   49.4860 O.2    58  GLN58      -0.2717
     28  NE2       56.2360   58.1300   48.2640 N.am   58  GLN58      -0.0878
     29  N         58.4300   59.6600   44.2590 N.3    60  CYS60      -0.1235
     30  CA        59.5040   60.4400   44.8600 C.3    60  CYS60       0.1677
     31  C         60.0590   61.4320   43.8590 C.2    60  CYS60       0.2270
     32  O         60.3380   61.0740   42.7180 O.2    60  CYS60      -0.2867
     33  CB        60.6520   59.5110   45.2940 C.3    60  CYS60       0.0956
     34  SG        60.1430   58.4960   46.6970 S.3    60  CYS60      -0.0801
     35  N         62.9890   64.4360   42.9150 N.3    62  PHE62      -0.1241
     36  CA        64.3450   64.9140   43.2530 C.3    62  PHE62       0.1605
     37  C         64.6650   66.1150   42.3740 C.2    62  PHE62       0.2264
     38  O         65.2520   65.9610   41.3030 O.2    62  PHE62      -0.2867
     39  CB        65.3530   63.7880   43.0020 C.3    62  PHE62       0.0534
     40  CG        65.1300   62.5840   43.8770 C.ar   62  PHE62      -0.0203
     41  CD1       65.6960   62.5020   45.1330 C.ar   62  PHE62      -0.0042
     42  CD2       64.3130   61.5500   43.4370 C.ar   62  PHE62      -0.0042
     43  CE1       65.4700   61.3980   45.9360 C.ar   62  PHE62      -0.0003
     44  CE2       64.0850   60.4470   44.2330 C.ar   62  PHE62      -0.0003
     45  CZ        64.6620   60.3700   45.4850 C.ar   62  PHE62      -0.0000
     46  N         68.3790   67.0050   41.1580 N.3    65  MET65      -0.1245
     47  CA        68.8550   66.0100   40.2060 C.3    65  MET65       0.1570
     48  C         67.9230   65.8470   39.0140 C.2    65  MET65       0.2261
     49  O         68.2790   65.1690   38.0520 O.2    65  MET65      -0.2867
     50  CB        69.0920   64.6790   40.9290 C.3    65  MET65       0.0387
     51  CG        70.2350   64.8260   41.9390 C.3    65  MET65       0.0595
     52  SD        70.5460   63.2930   42.8220 S.3    65  MET65      -0.1393
     53  CE        69.1780   63.2820   43.9860 C.3    65  MET65       0.0692
     54  N         64.8760   64.3260   38.5100 N.3    67  PHE67      -0.1241
     55  CA        64.2870   63.0220   38.1860 C.3    67  PHE67       0.1605
     56  C         63.2460   62.6820   39.2460 C.2    67  PHE67       0.2264
     57  O         63.2360   63.2360   40.3350 O.2    67  PHE67      -0.2867
     58  CB        65.2900   61.8850   38.0420 C.3    67  PHE67       0.0534
     59  CG        65.9340   61.3510   39.2850 C.ar   67  PHE67      -0.0203
     60  CD1       67.1230   61.8970   39.7400 C.ar   67  PHE67      -0.0042
     61  CD2       65.3790   60.2820   39.9810 C.ar   67  PHE67      -0.0042
     62  CE1       67.7460   61.3940   40.8680 C.ar   67  PHE67      -0.0003
     63  CE2       65.9970   59.7950   41.1110 C.ar   67  PHE67      -0.0003
     64  CZ        67.1790   60.3470   41.5610 C.ar   67  PHE67      -0.0000
     65  N         60.8470   59.1750   40.7600 N.3    69  LEU69      -0.1245
     66  CA        60.7300   57.7230   40.8190 C.3    69  LEU69       0.1561
     67  C         59.2620   57.4070   41.0810 C.2    69  LEU69       0.2260
     68  O         58.6100   58.0260   41.9150 O.2    69  LEU69      -0.2867
     69  CB        61.5730   57.1310   41.9430 C.3    69  LEU69       0.0270
     70  CG        63.0770   57.4290   41.8850 C.3    69  LEU69       0.0019
     71  CD1       63.7750   56.8390   43.0900 C.3    69  LEU69       0.0001
     72  CD2       63.6890   56.9060   40.5900 C.3    69  LEU69       0.0001
     73  N         56.9630   54.0450   41.9600 N.3    71  PHE71      -0.1241
     74  CA        56.9420   52.6400   42.3400 C.3    71  PHE71       0.1605
     75  C         55.5700   52.0340   42.0660 C.2    71  PHE71       0.2264
     76  O         54.5480   52.4990   42.5780 O.2    71  PHE71      -0.2867
     77  CB        57.2650   52.4370   43.8320 C.3    71  PHE71       0.0534
     78  CG        58.7060   52.7930   44.1020 C.ar   71  PHE71      -0.0203
     79  CD1       59.0760   54.0900   44.3960 C.ar   71  PHE71      -0.0042
     80  CD2       59.6730   51.7980   44.0430 C.ar   71  PHE71      -0.0042
     81  CE1       60.4050   54.4080   44.6390 C.ar   71  PHE71      -0.0003
     82  CE2       61.0060   52.1150   44.2730 C.ar   71  PHE71      -0.0003
     83  CZ        61.3560   53.4140   44.5650 C.ar   71  PHE71      -0.0000
     84  N         56.9210   55.2230   53.0760 N.3    88  ILE88      -0.1245
     85  CA        58.1880   54.8470   52.4610 C.3    88  ILE88       0.1561
     86  C         58.6610   53.4750   52.9000 C.2    88  ILE88       0.2260
     87  O         59.0060   52.6140   52.0900 O.2    88  ILE88      -0.2867
     88  CB        59.2870   55.8650   52.8570 C.3    88  ILE88       0.0252
     89  CG1       58.8980   57.2310   52.3040 C.3    88  ILE88       0.0019
     90  CG2       60.6600   55.4070   52.3890 C.3    88  ILE88       0.0019
     91  CD1       59.7630   58.3770   52.7730 C.3    88  ILE88       0.0001
     92  N         56.2750   50.8440   51.3390 N.3    91  ALA91      -0.1231
     93  CA        56.4150   50.6740   49.8910 C.3    91  ALA91       0.1694
     94  C         57.7270   49.9930   49.5350 C.2    91  ALA91       0.2591
     95  O         57.7820   49.0750   48.7070 O.2    91  ALA91      -0.2718
     96  CB        56.3390   52.0330   49.2080 C.3    91  ALA91       0.0304
     97  N         58.8260   50.4390   50.1670 N.am   92  LEU92      -0.1980
     98  CA        60.1270   49.8610   49.8850 C.3    92  LEU92       0.1596
     99  C         60.3970   48.5110   50.5230 C.2    92  LEU92       0.2287
    100  O         61.4800   47.9450   50.3120 O.2    92  LEU92      -0.2864
    101  CB        61.2470   50.8570   50.2130 C.3    92  LEU92       0.0297
    102  CG        61.4110   51.9960   49.2040 C.3    92  LEU92       0.0022
    103  CD1       62.4600   52.9820   49.6790 C.3    92  LEU92       0.0001
    104  CD2       61.8240   51.4740   47.8310 C.3    92  LEU92       0.0001
    105  N         60.3490   50.0700   39.7820 N.3    99  GLU99      -0.1245
    106  CA        60.7670   51.4410   40.0670 C.3    99  GLU99       0.1567
    107  C         60.9650   52.1210   38.7110 C.2    99  GLU99       0.2260
    108  O         61.9030   51.7760   38.0030 O.2    99  GLU99      -0.2867
    109  CB        62.0670   51.4740   40.8600 C.3    99  GLU99       0.0388
    110  CG        62.6190   52.8830   41.0660 C.3    99  GLU99       0.1160
    111  CD        64.0420   52.9330   41.5740 C.2    99  GLU99       0.3649
    112  OE1       64.6280   51.9010   41.9150 O.co2  99  GLU99      -0.2457
    113  OE2       64.6230   54.0420   41.6070 O.co2  99  GLU99      -0.2457
    114  N         61.9770   55.2390   36.5310 N.3   101  THR101     -0.1218
    115  CA        62.7350   56.4760   36.6610 C.3   101  THR101      0.1862
    116  C         62.4540   57.4110   35.4940 C.2   101  THR101      0.2287
    117  O         62.6700   57.0400   34.3510 O.2   101  THR101     -0.2866
    118  CB        64.2480   56.1370   36.6450 C.3   101  THR101      0.1770
    119  OG1       64.5100   55.2940   37.7760 O.3   101  THR101     -0.2211
    120  CG2       65.0600   57.4260   36.7360 C.3   101  THR101      0.0375
    121  N         63.6500   60.7990   33.9550 N.3   103  ASN103     -0.1240
    122  CA        64.6390   61.8900   33.9220 C.3   103  ASN103      0.1653
    123  C         63.9100   63.0730   33.2610 C.2   103  ASN103      0.2266
    124  O         63.4270   62.9170   32.1440 O.2   103  ASN103     -0.2867
    125  CB        65.8840   61.5200   33.1450 C.3   103  ASN103      0.1155
    126  CG        66.7430   60.5500   33.9460 C.2   103  ASN103      0.2627
    127  OD1       67.1380   60.8830   35.0610 O.2   103  ASN103     -0.2716
    128  ND2       67.0070   59.3770   33.3930 N.am  103  ASN103     -0.0877
@<TRIPOS>BOND
     1    12    11    2
     2    11    10    1
     3   124   123    2
     4    13    10    1
     5    13    14    1
     6    15    14    1
     7    15    16    1
     8    10     9    1
     9    18    17    1
    10   125   122    1
    11   125   126    1
    12   123   122    1
    13   128   126   am
    14    16    17    2
    15    17    19    1
    16   122   121    1
    17   126   127    2
    18   117   116    2
    19   116   115    1
    20     4     3    2
    21     3     2    1
    22   114   115    1
    23     7     8    1
    24     7     6    1
    25   118   115    1
    26   118   120    1
    27   118   119    1
    28     2     1    1
    29     2     5    1
    30   108   107    2
    31    58    55    1
    32    58    59    1
    33    49    48    2
    34    55    54    1
    35    55    56    1
    36     6     5    1
    37   107   106    1
    38    48    47    1
    39    56    57    2
    40    59    60   ar
    41    59    61   ar
    42    60    62   ar
    43   105   106    1
    44    61    63   ar
    45   106   109    1
    46    47    50    1
    47    47    46    1
    48    72    70    1
    49    65    66    1
    50    66    67    1
    51    66    69    1
    52   109   110    1
    53    62    64   ar
    54    50    51    1
    55   110   111    1
    56    67    68    2
    57    63    64   ar
    58    38    37    2
    59   111   113   ar
    60   111   112   ar
    61    70    69    1
    62    70    71    1
    63    51    52    1
    64    73    74    1
    65    75    74    1
    66    75    76    2
    67    74    77    1
    68    37    36    1
    69    32    31    2
    70    52    53    1
    71    35    36    1
    72    39    36    1
    73    39    40    1
    74    42    40   ar
    75    42    44   ar
    76    23    22    2
    77    77    78    1
    78    31    30    1
    79    40    41   ar
    80    80    78   ar
    81    80    82   ar
    82    78    79   ar
    83    44    45   ar
    84    29    30    1
    85    82    83   ar
    86    79    81   ar
    87    83    81   ar
    88    30    33    1
    89    22    21    1
    90    41    43   ar
    91    33    34    1
    92    45    43   ar
    93    20    21    1
    94    21    24    1
    95    24    25    1
    96    25    26    1
    97   104   102    1
    98    28    26   am
    99    26    27    2
   100    95    94    2
   101   102   103    1
   102   102   101    1
   103    96    93    1
   104    94    93    1
   105    94    97   am
   106    98    97    1
   107    98   101    1
   108    98    99    1
   109    93    92    1
   110   100    99    2
   111    87    86    2
   112    89    91    1
   113    89    88    1
   114    90    88    1
   115    85    88    1
   116    85    86    1
   117    85    84    1
