@<TRIPOS>MOLECULE
tmp/1qivA00.pdb
 228 212 0 0 0
SMALL
GASTEIGER

@<TRIPOS>ATOM
      1  N         19.8330   -6.5800   14.9980 N.3    17  PHE17      -0.1241
      2  CA        21.1140   -7.2570   14.8730 C.3    17  PHE17       0.1605
      3  C         21.0980   -8.6820   15.4090 C.2    17  PHE17       0.2264
      4  O         21.4990   -9.6260   14.7210 O.2    17  PHE17      -0.2867
      5  CB        22.1960   -6.4430   15.5880 C.3    17  PHE17       0.0534
      6  CG        22.5250   -5.1460   14.9070 C.ar   17  PHE17      -0.0203
      7  CD1       23.4660   -5.0990   13.8880 C.ar   17  PHE17      -0.0042
      8  CD2       21.8980   -3.9730   15.2840 C.ar   17  PHE17      -0.0042
      9  CE1       23.7770   -3.9060   13.2590 C.ar   17  PHE17      -0.0003
     10  CE2       22.2060   -2.7720   14.6570 C.ar   17  PHE17      -0.0003
     11  CZ        23.1470   -2.7410   13.6440 C.ar   17  PHE17      -0.0000
     12  N         25.2230  -10.0310   19.9650 N.3    25  ILE25      -0.1245
     13  CA        25.4040   -9.8100   18.5450 C.3    25  ILE25       0.1561
     14  C         26.7570  -10.4180   18.1700 C.2    25  ILE25       0.2260
     15  O         27.7590  -10.2520   18.8780 O.2    25  ILE25      -0.2867
     16  CB        25.4030   -8.3160   18.2090 C.3    25  ILE25       0.0252
     17  CG1       24.0980   -7.6860   18.7030 C.3    25  ILE25       0.0019
     18  CG2       25.5930   -8.1160   16.6910 C.3    25  ILE25       0.0019
     19  CD1       24.0910   -6.1740   18.6840 C.3    25  ILE25       0.0001
     20  N         26.2480   -9.2570   12.5370 N.3    30  LEU30      -0.1245
     21  CA        26.6060   -7.9040   12.1090 C.3    30  LEU30       0.1561
     22  C         26.7740   -7.8700   10.5920 C.2    30  LEU30       0.2260
     23  O         26.3250   -6.9300    9.9210 O.2    30  LEU30      -0.2867
     24  CB        27.9210   -7.4610   12.7580 C.3    30  LEU30       0.0270
     25  CG        28.4070   -6.0200   12.5210 C.3    30  LEU30       0.0019
     26  CD1       27.3170   -5.0010   12.8940 C.3    30  LEU30       0.0001
     27  CD2       29.6590   -5.7860   13.3620 C.3    30  LEU30       0.0001
     28  N         23.5320   -7.8350    8.5550 N.3    33  VAL33      -0.1231
     29  CA        22.8660   -6.5330    8.5900 C.3    33  VAL33       0.1692
     30  C         23.6270   -5.5960    7.6630 C.2    33  VAL33       0.2591
     31  O         23.0310   -4.8740    6.8630 O.2    33  VAL33      -0.2718
     32  CB        22.8440   -5.9250   10.0160 C.3    33  VAL33       0.0266
     33  CG1       22.5930   -4.4270    9.9390 C.3    33  VAL33       0.0020
     34  CG2       21.7580   -6.5920   10.8540 C.3    33  VAL33       0.0020
     35  N         24.9520   -5.6170    7.7690 N.am   34  MET34      -0.1979
     36  CA        25.7770   -4.7680    6.9260 C.3    34  MET34       0.1605
     37  C         25.3880   -4.9930    5.4690 C.2    34  MET34       0.2287
     38  O         25.1480   -4.0460    4.7260 O.2    34  MET34      -0.2864
     39  CB        27.2570   -5.0990    7.1210 C.3    34  MET34       0.0413
     40  CG        27.8270   -4.6490    8.4470 C.3    34  MET34       0.0598
     41  SD        27.6140   -2.8870    8.7750 S.3    34  MET34      -0.1393
     42  CE        28.8350   -2.1760    7.6730 C.3    34  MET34       0.0692
     43  N         22.2200   -3.6650    4.1920 N.3    37  LEU37      -0.1245
     44  CA        22.3890   -2.2280    3.9850 C.3    37  LEU37       0.1561
     45  C         23.4290   -1.9160    2.9150 C.2    37  LEU37       0.2260
     46  O         24.1220   -0.9030    2.9850 O.2    37  LEU37      -0.2867
     47  CB        22.7950   -1.5520    5.2910 C.3    37  LEU37       0.0270
     48  CG        21.8260   -1.7550    6.4510 C.3    37  LEU37       0.0019
     49  CD1       22.3820   -1.1090    7.7090 C.3    37  LEU37       0.0001
     50  CD2       20.4810   -1.1480    6.0830 C.3    37  LEU37       0.0001
     51  N         26.3470   -2.7860    2.3890 N.3    39  GLN39      -0.1245
     52  CA        27.7470   -2.7030    2.7910 C.3    39  GLN39       0.1566
     53  C         28.3650   -4.0930    2.6550 C.2    39  GLN39       0.2260
     54  O         27.6680   -5.1000    2.7950 O.2    39  GLN39      -0.2867
     55  CB        27.8470   -2.2390    4.2410 C.3    39  GLN39       0.0367
     56  CG        27.1270   -0.9440    4.5110 C.3    39  GLN39       0.0905
     57  CD        27.7380    0.2130    3.7600 C.2    39  GLN39       0.2608
     58  OE1       28.7450    0.7740    4.1840 O.2    39  GLN39      -0.2717
     59  NE2       27.1330    0.5780    2.6350 N.am   39  GLN39      -0.0878
     60  N         34.8590   -4.0300   13.8090 N.3    49  MET49      -0.1230
     61  CA        33.6950   -3.2560   14.2430 C.3    49  MET49       0.1702
     62  C         33.1890   -3.7070   15.6180 C.2    49  MET49       0.2592
     63  O         32.8120   -2.8730   16.4630 O.2    49  MET49      -0.2718
     64  CB        32.5700   -3.3700   13.2110 C.3    49  MET49       0.0401
     65  CG        32.8040   -2.5200   11.9740 C.3    49  MET49       0.0596
     66  SD        31.9500   -3.0770   10.4850 S.3    49  MET49      -0.1393
     67  CE        30.2710   -2.6390   10.9050 C.3    49  MET49       0.0692
     68  N         33.2060   -5.0220   15.8400 N.am   50  ILE50      -0.1980
     69  CA        32.7420   -5.6100   17.0920 C.3    50  ILE50       0.1595
     70  C         33.7380   -5.4920   18.2440 C.2    50  ILE50       0.2287
     71  O         33.3480   -5.3400   19.4040 O.2    50  ILE50      -0.2864
     72  CB        32.3820   -7.1020   16.8930 C.3    50  ILE50       0.0276
     73  CG1       31.1070   -7.2120   16.0530 C.3    50  ILE50       0.0022
     74  CG2       32.1990   -7.7930   18.2480 C.3    50  ILE50       0.0022
     75  CD1       30.0810   -8.1180   16.6240 C.3    50  ILE50       0.0001
     76  N         33.6740   -2.1000   20.1000 N.3    53  VAL53      -0.1245
     77  CA        32.5670   -1.8970   21.0080 C.3    53  VAL53       0.1561
     78  C         32.5350   -2.9670   22.0940 C.2    53  VAL53       0.2260
     79  O         31.8660   -2.8050   23.1110 O.2    53  VAL53      -0.2867
     80  CB        31.2220   -1.8740   20.2220 C.3    53  VAL53       0.0252
     81  CG1       31.4890   -2.0440   18.7430 C.3    53  VAL53       0.0019
     82  CG2       30.2940   -2.9720   20.7090 C.3    53  VAL53       0.0019
     83  N         28.6660   -8.7410   21.3170 N.3    61  ILE61      -0.1245
     84  CA        28.1180   -7.4970   21.8340 C.3    61  ILE61       0.1561
     85  C         26.7860   -7.7030   22.5420 C.2    61  ILE61       0.2260
     86  O         25.8020   -8.0960   21.9230 O.2    61  ILE61      -0.2867
     87  CB        27.9240   -6.4830   20.6830 C.3    61  ILE61       0.0252
     88  CG1       29.2490   -6.2830   19.9480 C.3    61  ILE61       0.0019
     89  CG2       27.3870   -5.1680   21.2160 C.3    61  ILE61       0.0019
     90  CD1       30.4070   -5.9720   20.8510 C.3    61  ILE61       0.0001
     91  N         26.0080   -2.2610   23.5330 N.3    66  PHE66      -0.1241
     92  CA        25.3190   -1.6590   22.4010 C.3    66  PHE66       0.1605
     93  C         24.7600   -0.2860   22.7860 C.2    66  PHE66       0.2264
     94  O         24.9640    0.7030   22.0740 O.2    66  PHE66      -0.2867
     95  CB        24.1790   -2.5820   21.9680 C.3    66  PHE66       0.0534
     96  CG        23.5980   -2.2390   20.6400 C.ar   66  PHE66      -0.0203
     97  CD1       24.3350   -2.4190   19.4800 C.ar   66  PHE66      -0.0042
     98  CD2       22.3170   -1.7220   20.5450 C.ar   66  PHE66      -0.0042
     99  CE1       23.8050   -2.0890   18.2500 C.ar   66  PHE66      -0.0003
    100  CE2       21.7780   -1.3850   19.3130 C.ar   66  PHE66      -0.0003
    101  CZ        22.5240   -1.5690   18.1650 C.ar   66  PHE66      -0.0000
    102  N         27.6010    2.3010   23.1900 N.3    69  MET69      -0.1230
    103  CA        28.0530    2.7910   21.8960 C.3    69  MET69       0.1702
    104  C         26.9890    3.5370   21.0990 C.2    69  MET69       0.2592
    105  O         27.2820    4.5360   20.4400 O.2    69  MET69      -0.2718
    106  CB        28.5800    1.6280   21.0560 C.3    69  MET69       0.0401
    107  CG        28.8340    2.0000   19.6030 C.3    69  MET69       0.0596
    108  SD        28.0000    0.9150   18.4430 S.3    69  MET69      -0.1393
    109  CE        26.4580    0.6570   19.2620 C.3    69  MET69       0.0692
    110  N         25.7590    3.0410   21.1450 N.am   70  MET70      -0.1979
    111  CA        24.6730    3.6610   20.4070 C.3    70  MET70       0.1605
    112  C         24.3530    5.0470   20.9420 C.2    70  MET70       0.2287
    113  O         24.0720    5.9680   20.1770 O.2    70  MET70      -0.2864
    114  CB        23.4290    2.7770   20.4700 C.3    70  MET70       0.0413
    115  CG        22.9350    2.2850   19.1130 C.3    70  MET70       0.0598
    116  SD        24.2320    2.1350   17.8590 S.3    70  MET70      -0.1393
    117  CE        23.5030    3.0910   16.5050 C.3    70  MET70       0.0692
    118  N         26.5070    6.8520   22.5620 N.3    72  ARG72      -0.1245
    119  CA        27.7330    7.6470   22.5680 C.3    72  ARG72       0.1563
    120  C         27.5470    8.8900   21.7080 C.2    72  ARG72       0.2260
    121  O         26.9510    8.8320   20.6320 O.2    72  ARG72      -0.2867
    122  CB        28.9150    6.8240   22.0480 C.3    72  ARG72       0.0307
    123  CG        30.2500    7.5610   22.0460 C.3    72  ARG72       0.0489
    124  CD        31.4340    6.7520   21.5300 C.3    72  ARG72       0.2205
    125  NE        31.0790    5.8930   20.3950 N.pl3  72  ARG72      -0.0865
    126  CZ        31.3240    6.2480   19.1510 C.cat  72  ARG72       0.5346
    127  NH1       31.9000    7.3980   18.8820 N.pl3  72  ARG72       0.1354
    128  NH2       30.9870    5.4650   18.1430 N.pl3  72  ARG72       0.1354
    129  N         27.9690   11.3960   19.0700 N.3    74  MET74      -0.1245
    130  CA        28.5620   11.4460   17.7410 C.3    74  MET74       0.1570
    131  C         28.9210   12.8810   17.3720 C.2    74  MET74       0.2261
    132  O         28.0820   13.6310   16.8760 O.2    74  MET74      -0.2867
    133  CB        27.5930   10.8650   16.7170 C.3    74  MET74       0.0387
    134  CG        27.2720    9.4180   16.9520 C.3    74  MET74       0.0595
    135  SD        28.6960    8.2890   16.6910 S.3    74  MET74      -0.1393
    136  CE        28.8350    8.2880   14.9350 C.3    74  MET74       0.0692
    137  N         30.8530    8.7280    6.8250 N.3    82  GLU82      -0.1231
    138  CA        30.1120    7.6040    7.3790 C.3    82  GLU82       0.1699
    139  C         28.6200    7.9200    7.3850 C.2    82  GLU82       0.2592
    140  O         27.8160    7.1100    6.9310 O.2    82  GLU82      -0.2718
    141  CB        30.5990    7.2990    8.8010 C.3    82  GLU82       0.0402
    142  CG        31.2800    5.9360    8.9490 C.3    82  GLU82       0.1161
    143  CD        32.5840    6.0060    9.7270 C.2    82  GLU82       0.3649
    144  OE1       33.0960    7.1280    9.9320 O.co2  82  GLU82      -0.2457
    145  OE2       33.0970    4.9380   10.1320 O.co2  82  GLU82      -0.2457
    146  N         28.2630    9.0970    7.8990 N.am   83  ILE83      -0.1980
    147  CA        26.8710    9.5500    7.9510 C.3    83  ILE83       0.1595
    148  C         26.3550    9.5690    6.5290 C.2    83  ILE83       0.2287
    149  O         25.2440    9.1340    6.2450 O.2    83  ILE83      -0.2864
    150  CB        26.7430   11.0010    8.4840 C.3    83  ILE83       0.0276
    151  CG1       27.1520   11.0750    9.9570 C.3    83  ILE83       0.0022
    152  CG2       25.3070   11.4920    8.3050 C.3    83  ILE83       0.0022
    153  CD1       27.7320    9.7850   10.5040 C.3    83  ILE83       0.0001
    154  N         27.4110    7.8540    3.9900 N.3    85  GLU85      -0.1231
    155  CA        27.2160    6.4910    3.5280 C.3    85  GLU85       0.1699
    156  C         25.8710    6.0030    4.0450 C.2    85  GLU85       0.2592
    157  O         25.1170    5.3540    3.3280 O.2    85  GLU85      -0.2718
    158  CB        28.3320    5.5980    4.0590 C.3    85  GLU85       0.0402
    159  CG        29.2460    5.0590    2.9860 C.3    85  GLU85       0.1161
    160  CD        30.4020    4.2800    3.5660 C.2    85  GLU85       0.3649
    161  OE1       30.2460    3.7430    4.6840 O.co2  85  GLU85      -0.2457
    162  OE2       31.4660    4.2070    2.9110 O.co2  85  GLU85      -0.2457
    163  N         25.5830    6.3310    5.2980 N.am   86  ALA86      -0.1980
    164  CA        24.3410    5.9470    5.9420 C.3    86  ALA86       0.1597
    165  C         23.1190    6.5810    5.2710 C.2    86  ALA86       0.2287
    166  O         22.0820    5.9400    5.1360 O.2    86  ALA86      -0.2864
    167  CB        24.3930    6.3350    7.4150 C.3    86  ALA86       0.0319
    168  N         21.9260    4.8270    1.9540 N.3    89  VAL89      -0.1231
    169  CA        21.2220    3.5520    2.0140 C.3    89  VAL89       0.1692
    170  C         19.7190    3.8000    2.0030 C.2    89  VAL89       0.2592
    171  O         18.9580    3.0260    1.4250 O.2    89  VAL89      -0.2718
    172  CB        21.5960    2.7490    3.2710 C.3    89  VAL89       0.0266
    173  CG1       22.9300    2.0560    3.0600 C.3    89  VAL89       0.0020
    174  CG2       21.6600    3.6580    4.4660 C.3    89  VAL89       0.0020
    175  N         19.2950    4.8830    2.6500 N.am   90  PHE90      -0.1976
    176  CA        17.8850    5.2360    2.6890 C.3    90  PHE90       0.1639
    177  C         17.4990    5.8500    1.3590 C.2    90  PHE90       0.2290
    178  O         16.7310    5.2610    0.6100 O.2    90  PHE90      -0.2864
    179  CB        17.6120    6.2360    3.8040 C.3    90  PHE90       0.0560
    180  CG        17.6670    5.6370    5.1650 C.ar   90  PHE90      -0.0200
    181  CD1       16.5540    5.0200    5.7010 C.ar   90  PHE90      -0.0042
    182  CD2       18.8470    5.6570    5.8950 C.ar   90  PHE90      -0.0042
    183  CE1       16.6060    4.4170    6.9520 C.ar   90  PHE90      -0.0003
    184  CE2       18.9180    5.0610    7.1430 C.ar   90  PHE90      -0.0003
    185  CZ        17.7920    4.4360    7.6760 C.ar   90  PHE90      -0.0000
    186  N         13.5780   -1.0440    6.0990 N.3   107  MET107     -0.1245
    187  CA        13.0740   -1.8550    7.1960 C.3   107  MET107      0.1570
    188  C         12.8000   -3.2710    6.6880 C.2   107  MET107      0.2261
    189  O         13.3200   -4.2500    7.2400 O.2   107  MET107     -0.2867
    190  CB        11.7950   -1.2370    7.7680 C.3   107  MET107      0.0387
    191  CG        12.0180   -0.1190    8.7910 C.3   107  MET107      0.0595
    192  SD        13.5460   -0.2380    9.7600 S.3   107  MET107     -0.1393
    193  CE        14.4220    1.1820    9.1200 C.3   107  MET107      0.0692
    194  N         15.5850   -5.2820    6.3030 N.3   110  LEU110     -0.1245
    195  CA        16.2190   -5.5930    7.5800 C.3   110  LEU110      0.1561
    196  C         15.4540   -6.7050    8.2920 C.2   110  LEU110      0.2260
    197  O         15.7650   -7.0530    9.4290 O.2   110  LEU110     -0.2867
    198  CB        16.2460   -4.3510    8.4720 C.3   110  LEU110      0.0270
    199  CG        17.4190   -3.3920    8.2640 C.3   110  LEU110      0.0019
    200  CD1       17.1070   -2.0260    8.9090 C.3   110  LEU110      0.0001
    201  CD2       18.6700   -4.0050    8.8670 C.3   110  LEU110      0.0001
    202  N         19.0210   14.6300    8.3550 N.3   139  PHE139     -0.1241
    203  CA        19.5790   13.3170    8.6800 C.3   139  PHE139      0.1605
    204  C         20.8090   13.4870    9.5690 C.2   139  PHE139      0.2264
    205  O         20.9650   12.8050   10.5830 O.2   139  PHE139     -0.2867
    206  CB        19.9720   12.5830    7.3940 C.3   139  PHE139      0.0534
    207  CG        20.3550   11.1370    7.6010 C.ar  139  PHE139     -0.0203
    208  CD1       19.3840   10.1690    7.8070 C.ar  139  PHE139     -0.0042
    209  CD2       21.6880   10.7470    7.5680 C.ar  139  PHE139     -0.0042
    210  CE1       19.7320    8.8400    7.9760 C.ar  139  PHE139     -0.0003
    211  CE2       22.0450    9.4190    7.7350 C.ar  139  PHE139     -0.0003
    212  CZ        21.0660    8.4640    7.9400 C.ar  139  PHE139     -0.0000
    213  N         20.0210   14.2380   13.4720 N.3   142  MET142     -0.1230
    214  CA        19.5340   13.1460   14.3060 C.3   142  MET142      0.1702
    215  C         20.5710   12.0320   14.4550 C.2   142  MET142      0.2592
    216  O         20.5560   11.2830   15.4300 O.2   142  MET142     -0.2718
    217  CB        18.2190   12.5880   13.7350 C.3   142  MET142      0.0401
    218  CG        18.3600   11.7490   12.4780 C.3   142  MET142      0.0596
    219  SD        17.2200   10.3420   12.4670 S.3   142  MET142     -0.1393
    220  CE        18.1860    9.1390   11.5770 C.3   142  MET142      0.0692
    221  N         21.4760   11.9370   13.4870 N.am  143  MET143     -0.1979
    222  CA        22.5200   10.9230   13.5010 C.3   143  MET143      0.1605
    223  C         23.6570   11.3130   14.4350 C.2   143  MET143      0.2287
    224  O         24.3790   10.4540   14.9450 O.2   143  MET143     -0.2864
    225  CB        23.0750   10.7160   12.0890 C.3   143  MET143      0.0413
    226  CG        23.0700    9.2700   11.6330 C.3   143  MET143      0.0598
    227  SD        21.4260    8.5230   11.7580 S.3   143  MET143     -0.1393
    228  CE        21.2770    8.3120   13.5290 C.3   143  MET143      0.0692
@<TRIPOS>BOND
     1   178   177    2
     2   177   176    1
     3   171   170    2
     4   168   169    1
     5   170   169    1
     6   170   175   am
     7   169   172    1
     8    51    52    1
     9    59    57   am
    10   175   176    1
    11    53    52    1
    12    53    54    2
    13   176   179    1
    14    52    55    1
    15   162   160   ar
    16    45    46    2
    17    45    44    1
    18   159   160    1
    19   159   158    1
    20   173   172    1
    21   172   174    1
    22   157   156    2
    23   155   154    1
    24   155   156    1
    25   155   158    1
    26   160   161   ar
    27    57    58    2
    28    57    56    1
    29   179   180    1
    30    44    43    1
    31    44    47    1
    32   156   163   am
    33    55    56    1
    34    38    37    2
    35   166   165    2
    36   180   181   ar
    37   180   182   ar
    38   165   164    1
    39    47    48    1
    40   163   164    1
    41    37    36    1
    42   181   183   ar
    43   182   184   ar
    44   164   167    1
    45    50    48    1
    46   186   187    1
    47   149   148    2
    48   194   195    1
    49    48    49    1
    50   148   147    1
    51   188   187    1
    52   188   189    2
    53   137   138    1
    54    31    30    2
    55    36    39    1
    56    36    35    1
    57   140   139    2
    58   183   185   ar
    59    39    40    1
    60   184   185   ar
    61   187   190    1
    62   138   139    1
    63   138   141    1
    64   139   146   am
    65   206   207    1
    66   206   203    1
    67   209   207   ar
    68   209   211   ar
    69   195   196    1
    70   195   198    1
    71   207   208   ar
    72    30    35   am
    73    30    29    1
    74    42    41    1
    75   211   212   ar
    76   190   191    1
    77   208   210   ar
    78   146   147    1
    79   212   210   ar
    80   147   150    1
    81   199   198    1
    82   199   201    1
    83   199   200    1
    84   196   197    2
    85   152   150    1
    86   202   203    1
    87    40    41    1
    88   150   151    1
    89    28    29    1
    90    29    32    1
    91   203   204    1
    92   191   192    1
    93   141   142    1
    94   142   143    1
    95   193   192    1
    96   204   205    2
    97   143   144   ar
    98   143   145   ar
    99    23    22    2
   100    33    32    1
   101   151   153    1
   102    32    34    1
   103    66    67    1
   104    66    65    1
   105    22    21    1
   106   220   219    1
   107   226   227    1
   108   226   225    1
   109   227   228    1
   110    65    64    1
   111   225   222    1
   112    21    20    1
   113    21    24    1
   114   219   218    1
   115   218   217    1
   116    25    24    1
   117    25    26    1
   118    25    27    1
   119    64    61    1
   120     9    11   ar
   121     9     7   ar
   122   213   214    1
   123   221   222    1
   124   221   215   am
   125   222   223    1
   126    11    10   ar
   127   217   214    1
   128    60    61    1
   129     7     6   ar
   130    61    62    1
   131   214   215    1
   132   223   224    2
   133   215   216    2
   134    10     8   ar
   135     4     3    2
   136     2     1    1
   137     2     3    1
   138     2     5    1
   139     6     8   ar
   140     6     5    1
   141   136   135    1
   142    62    68   am
   143    62    63    2
   144    68    69    1
   145    73    75    1
   146    73    72    1
   147   117   116    1
   148    18    16    1
   149   135   134    1
   150   133   134    1
   151   133   130    1
   152   132   131    2
   153    72    69    1
   154    72    74    1
   155    69    70    1
   156   131   130    1
   157   130   129    1
   158   116   115    1
   159   128   126    1
   160   101    99   ar
   161   101   100   ar
   162    14    13    1
   163    14    15    2
   164    16    13    1
   165    16    17    1
   166    70    71    2
   167    99    97   ar
   168   108   109    1
   169   108   107    1
   170    13    12    1
   171    19    17    1
   172    81    80    1
   173   127   126    1
   174   115   114    1
   175   126   125    2
   176   100    98   ar
   177    97    96   ar
   178   107   106    1
   179    88    87    1
   180    88    90    1
   181    76    77    1
   182   113   112    2
   183    80    82    1
   184    80    77    1
   185   125   124    1
   186   111   114    1
   187   111   112    1
   188   111   110    1
   189   105   104    2
   190    98    96   ar
   191   121   120    2
   192    96    95    1
   193    87    89    1
   194    87    84    1
   195    77    78    1
   196   106   103    1
   197   104   110   am
   198   104   103    1
   199    83    84    1
   200   124   123    1
   201   120   119    1
   202    84    85    1
   203   103   102    1
   204    86    85    2
   205    95    92    1
   206   123   122    1
   207   122   119    1
   208    94    93    2
   209    78    79    2
   210    92    93    1
   211    92    91    1
   212   118   119    1
