@<TRIPOS>MOLECULE
tmp/1qiwB00.pdb
 184 172 0 0 0
SMALL
GASTEIGER

@<TRIPOS>ATOM
      1  N         19.4630   56.6440   30.0360 N.3     5  GLN5       -0.1245
      2  CA        19.0690   55.5630   29.1320 C.3     5  GLN5        0.1566
      3  C         18.0140   56.0160   28.1330 C.2     5  GLN5        0.2260
      4  O         17.8330   55.4020   27.0840 O.2     5  GLN5       -0.2867
      5  CB        18.5330   54.3680   29.9350 C.3     5  GLN5        0.0367
      6  CG        19.4020   53.9570   31.1170 C.3     5  GLN5        0.0905
      7  CD        18.8690   52.7280   31.8460 C.2     5  GLN5        0.2608
      8  OE1       19.5430   51.7020   31.9330 O.2     5  GLN5       -0.2717
      9  NE2       17.6540   52.8320   32.3740 N.am    5  GLN5       -0.0878
     10  N         19.8070   58.2680   25.5110 N.3     8  GLU8       -0.1231
     11  CA        20.4630   57.3450   24.5970 C.3     8  GLU8        0.1699
     12  C         19.4420   56.6020   23.7390 C.2     8  GLU8        0.2592
     13  O         19.7890   56.0470   22.7040 O.2     8  GLU8       -0.2718
     14  CB        21.2860   56.3350   25.3920 C.3     8  GLU8        0.0402
     15  CG        22.7770   56.6020   25.4010 C.3     8  GLU8        0.1161
     16  CD        23.5690   55.3880   25.8370 C.2     8  GLU8        0.3649
     17  OE1       23.8260   54.5090   24.9860 O.co2   8  GLU8       -0.2457
     18  OE2       23.9290   55.3090   27.0310 O.co2   8  GLU8       -0.2457
     19  N         18.1870   56.5690   24.1830 N.am    9  PHE9       -0.1976
     20  CA        17.1630   55.8890   23.4080 C.3     9  PHE9        0.1639
     21  C         16.6030   56.8110   22.3490 C.2     9  PHE9        0.2290
     22  O         16.1380   56.3580   21.3040 O.2     9  PHE9       -0.2864
     23  CB        16.0450   55.3750   24.3050 C.3     9  PHE9        0.0560
     24  CG        16.2270   53.9470   24.6970 C.ar    9  PHE9       -0.0200
     25  CD1       16.7860   53.0450   23.7990 C.ar    9  PHE9       -0.0042
     26  CD2       15.9110   53.5130   25.9710 C.ar    9  PHE9       -0.0042
     27  CE1       17.0290   51.7390   24.1730 C.ar    9  PHE9       -0.0003
     28  CE2       16.1520   52.1980   26.3570 C.ar    9  PHE9       -0.0003
     29  CZ        16.7080   51.3140   25.4680 C.ar    9  PHE9       -0.0000
     30  N         19.1610   56.8760   19.4620 N.3    12  ALA12      -0.1245
     31  CA        19.0520   55.6630   18.6610 C.3    12  ALA12       0.1562
     32  C         17.7730   55.7550   17.8330 C.2    12  ALA12       0.2260
     33  O         17.6930   55.2000   16.7420 O.2    12  ALA12      -0.2867
     34  CB        19.0190   54.4290   19.5730 C.3    12  ALA12       0.0290
     35  N         16.6630   56.0430   13.1110 N.3    16  PHE16      -0.1241
     36  CA        15.6600   55.4350   12.2610 C.3    16  PHE16       0.1605
     37  C         14.8860   56.5740   11.6110 C.2    16  PHE16       0.2264
     38  O         14.5280   56.4980   10.4330 O.2    16  PHE16      -0.2867
     39  CB        14.7300   54.5510   13.0900 C.3    16  PHE16       0.0534
     40  CG        15.4120   53.3510   13.6880 C.ar   16  PHE16      -0.0203
     41  CD1       15.4840   52.1570   12.9810 C.ar   16  PHE16      -0.0042
     42  CD2       15.9730   53.4120   14.9590 C.ar   16  PHE16      -0.0042
     43  CE1       16.1000   51.0460   13.5250 C.ar   16  PHE16      -0.0003
     44  CE2       16.5920   52.3080   15.5170 C.ar   16  PHE16      -0.0003
     45  CZ        16.6570   51.1130   14.7970 C.ar   16  PHE16      -0.0000
     46  N         11.2860   49.0740   23.9050 N.3    69  MET69      -0.1245
     47  CA        12.6020   48.8000   24.4720 C.3    69  MET69       0.1570
     48  C         12.4560   48.5430   25.9680 C.2    69  MET69       0.2261
     49  O         13.0720   47.6290   26.5150 O.2    69  MET69      -0.2867
     50  CB        13.5280   50.0000   24.2550 C.3    69  MET69       0.0387
     51  CG        13.7790   50.3380   22.7960 C.3    69  MET69       0.0595
     52  SD        14.6720   49.0180   21.9570 S.3    69  MET69      -0.1393
     53  CE        15.0420   49.7940   20.3690 C.3    69  MET69       0.0692
     54  N         13.1690   44.9810   27.1990 N.3    73  MET73      -0.1230
     55  CA        14.4280   45.1700   26.4900 C.3    73  MET73       0.1702
     56  C         15.2940   43.9200   26.5490 C.2    73  MET73       0.2592
     57  O         15.9090   43.5380   25.5530 O.2    73  MET73      -0.2718
     58  CB        15.1940   46.3680   27.0650 C.3    73  MET73       0.0401
     59  CG        15.8720   46.1250   28.4030 C.3    73  MET73       0.0596
     60  SD        17.2320   47.2830   28.7080 S.3    73  MET73      -0.1393
     61  CE        16.9340   48.5290   27.4250 C.3    73  MET73       0.0692
     62  N         15.3340   43.2790   27.7130 N.am   74  LYS74      -0.1980
     63  CA        16.1330   42.0710   27.8810 C.3    74  LYS74       0.1596
     64  C         15.5320   41.1160   28.9080 C.2    74  LYS74       0.2287
     65  O         16.0560   40.9710   30.0130 O.2    74  LYS74      -0.2864
     66  CB        17.5610   42.4390   28.2960 C.3    74  LYS74       0.0298
     67  CG        18.5500   41.2860   28.1550 C.3    74  LYS74       0.0038
     68  CD        18.5990   40.4950   29.4470 C.3    74  LYS74       0.0206
     69  CE        19.8760   39.6760   29.5920 C.3    74  LYS74       0.1093
     70  NZ        19.7780   38.8060   30.8040 N.3    74  LYS74      -0.1314
     71  N         17.6660   38.0400   20.2000 N.3    81  GLU81      -0.1231
     72  CA        17.8310   39.3830   19.6560 C.3    81  GLU81       0.1699
     73  C         19.2180   39.9490   19.9440 C.2    81  GLU81       0.2592
     74  O         19.8270   40.5800   19.0820 O.2    81  GLU81      -0.2718
     75  CB        16.7600   40.3140   20.2310 C.3    81  GLU81       0.0402
     76  CG        15.3230   39.7860   20.1500 C.3    81  GLU81       0.1161
     77  CD        14.8080   39.6050   18.7280 C.2    81  GLU81       0.3649
     78  OE1       15.2380   40.3420   17.8190 O.co2  81  GLU81      -0.2457
     79  OE2       13.9540   38.7290   18.5160 O.co2  81  GLU81      -0.2457
     80  N         19.7100   39.7350   21.1610 N.am   82  ILE82      -0.1980
     81  CA        21.0370   40.2140   21.5240 C.3    82  ILE82       0.1595
     82  C         22.0520   39.4540   20.6750 C.2    82  ILE82       0.2287
     83  O         23.0570   40.0140   20.2330 O.2    82  ILE82      -0.2864
     84  CB        21.3400   39.9710   23.0200 C.3    82  ILE82       0.0276
     85  CG1       20.3350   40.7370   23.8860 C.3    82  ILE82       0.0022
     86  CG2       22.7580   40.4230   23.3460 C.3    82  ILE82       0.0022
     87  CD1       20.5910   40.6180   25.3760 C.3    82  ILE82       0.0001
     88  N         21.9630   41.0150   17.2800 N.3    85  ALA85      -0.1245
     89  CA        22.6120   42.3120   17.4170 C.3    85  ALA85       0.1562
     90  C         24.1320   42.1560   17.4170 C.2    85  ALA85       0.2260
     91  O         24.8320   42.8460   16.6810 O.2    85  ALA85      -0.2867
     92  CB        22.1500   42.9880   18.7010 C.3    85  ALA85       0.0290
     93  N         27.4550   43.4080   14.5090 N.3    89  PHE89      -0.1241
     94  CA        28.7060   44.1140   14.7650 C.3    89  PHE89       0.1605
     95  C         29.9490   43.2930   14.4250 C.2    89  PHE89       0.2264
     96  O         30.8840   43.7950   13.8130 O.2    89  PHE89      -0.2867
     97  CB        28.7690   44.5310   16.2310 C.3    89  PHE89       0.0534
     98  CG        27.9420   45.7350   16.5530 C.ar   89  PHE89      -0.0203
     99  CD1       28.4130   47.0100   16.2840 C.ar   89  PHE89      -0.0042
    100  CD2       26.6940   45.5950   17.1510 C.ar   89  PHE89      -0.0042
    101  CE1       27.6570   48.1230   16.6100 C.ar   89  PHE89      -0.0003
    102  CE2       25.9380   46.7060   17.4750 C.ar   89  PHE89      -0.0003
    103  CZ        26.4240   47.9690   17.2050 C.ar   89  PHE89      -0.0000
    104  N         34.0900   41.8850   18.9520 N.3    97  ILE97      -0.1245
    105  CA        33.7440   43.1300   18.2560 C.3    97  ILE97       0.1561
    106  C         34.9200   44.0900   18.4700 C.2    97  ILE97       0.2260
    107  O         35.3130   44.3290   19.5980 O.2    97  ILE97      -0.2867
    108  CB        32.4760   43.7870   18.8510 C.3    97  ILE97       0.0252
    109  CG1       31.2610   42.9050   18.5880 C.3    97  ILE97       0.0019
    110  CG2       32.2680   45.1800   18.2450 C.3    97  ILE97       0.0019
    111  CD1       30.0160   43.3450   19.3080 C.3    97  ILE97       0.0001
    112  N         32.7360   48.4220   15.2150 N.3   102  LEU102     -0.1245
    113  CA        31.7130   49.2390   15.8340 C.3   102  LEU102      0.1561
    114  C         31.6080   50.5400   15.0620 C.2   102  LEU102      0.2260
    115  O         30.5160   50.9930   14.7310 O.2   102  LEU102     -0.2867
    116  CB        32.0780   49.5350   17.2920 C.3   102  LEU102      0.0270
    117  CG        31.1170   50.3590   18.1610 C.3   102  LEU102      0.0019
    118  CD1       31.8910   50.9860   19.2940 C.3   102  LEU102      0.0001
    119  CD2       30.4400   51.4370   17.3530 C.3   102  LEU102      0.0001
    120  N         28.1990   51.8060   13.1640 N.3   106  MET106     -0.1245
    121  CA        27.6360   53.0810   13.6000 C.3   106  MET106      0.1570
    122  C         27.5370   54.0520   12.4320 C.2   106  MET106      0.2261
    123  O         26.5740   54.8090   12.3130 O.2   106  MET106     -0.2867
    124  CB        28.5190   53.6960   14.6860 C.3   106  MET106      0.0387
    125  CG        27.9960   53.5190   16.0930 C.3   106  MET106      0.0595
    126  SD        26.5480   52.4490   16.1850 S.3   106  MET106     -0.1393
    127  CE        25.9750   52.8700   17.8170 C.3   106  MET106      0.0692
    128  N         33.1910   54.0290   24.0760 N.3   121  MET121     -0.1230
    129  CA        32.1720   52.9910   23.9530 C.3   121  MET121      0.1702
    130  C         32.8090   51.6210   24.1580 C.2   121  MET121      0.2592
    131  O         32.2050   50.7180   24.7360 O.2   121  MET121     -0.2718
    132  CB        31.5110   53.0620   22.5680 C.3   121  MET121      0.0401
    133  CG        30.3580   54.0590   22.4760 C.3   121  MET121      0.0596
    134  SD        29.9430   54.6020   20.7920 S.3   121  MET121     -0.1393
    135  CE        28.2080   54.2030   20.7200 C.3   121  MET121      0.0692
    136  N         34.0400   51.4790   23.6840 N.am  122  ILE122     -0.1980
    137  CA        34.7780   50.2280   23.8040 C.3   122  ILE122      0.1595
    138  C         35.3480   50.0920   25.2160 C.2   122  ILE122      0.2287
    139  O         35.2110   49.0470   25.8520 O.2   122  ILE122     -0.2864
    140  CB        35.9480   50.1730   22.7870 C.3   122  ILE122      0.0276
    141  CG1       35.4170   49.9160   21.3730 C.3   122  ILE122      0.0022
    142  CG2       36.9260   49.0970   23.1820 C.3   122  ILE122      0.0022
    143  CD1       34.6850   48.5950   21.2120 C.3   122  ILE122      0.0001
    144  N         35.4340   43.8040   22.6310 N.3   133  VAL133     -0.1245
    145  CA        34.2020   43.4530   23.3280 C.3   133  VAL133      0.1561
    146  C         33.6410   42.0900   22.8970 C.2   133  VAL133      0.2260
    147  O         33.0450   41.9670   21.8290 O.2   133  VAL133     -0.2867
    148  CB        33.1180   44.5400   23.1060 C.3   133  VAL133      0.0252
    149  CG1       31.8840   44.2070   23.9390 C.3   133  VAL133      0.0019
    150  CG2       33.6820   45.9480   23.4710 C.3   133  VAL133      0.0019
    151  N         29.5200   42.0710   25.8340 N.3   138  PHE138     -0.1241
    152  CA        28.4240   42.6780   25.0790 C.3   138  PHE138      0.1605
    153  C         27.0730   42.5100   25.7640 C.2   138  PHE138      0.2264
    154  O         26.2930   43.4570   25.8700 O.2   138  PHE138     -0.2867
    155  CB        28.3530   42.0710   23.6760 C.3   138  PHE138      0.0534
    156  CG        27.3030   42.6910   22.8000 C.ar  138  PHE138     -0.0203
    157  CD1       27.5270   43.9150   22.1840 C.ar  138  PHE138     -0.0042
    158  CD2       26.0930   42.0510   22.5850 C.ar  138  PHE138     -0.0042
    159  CE1       26.5650   44.4890   21.3700 C.ar  138  PHE138     -0.0003
    160  CE2       25.1240   42.6210   21.7700 C.ar  138  PHE138     -0.0003
    161  CZ        25.3630   43.8420   21.1620 C.ar  138  PHE138     -0.0000
    162  N         26.6410   44.5510   28.9350 N.3   141  MET141     -0.1230
    163  CA        26.5530   45.9630   28.5790 C.3   141  MET141      0.1702
    164  C         25.1500   46.4100   28.1730 C.2   141  MET141      0.2592
    165  O         24.7900   47.5720   28.3540 O.2   141  MET141     -0.2718
    166  CB        27.5400   46.2730   27.4510 C.3   141  MET141      0.0401
    167  CG        27.3670   47.6420   26.8240 C.3   141  MET141      0.0596
    168  SD        27.3020   47.5450   25.0320 S.3   141  MET141     -0.1393
    169  CE        28.8700   46.7380   24.6710 C.3   141  MET141      0.0692
    170  N         24.3590   45.4940   27.6250 N.am  142  MET142     -0.1965
    171  CA        23.0010   45.8240   27.2010 C.3   142  MET142      0.1736
    172  C         21.9640   45.4720   28.2650 C.2   142  MET142      0.2617
    173  O         20.8280   45.9460   28.2190 O.2   142  MET142     -0.2715
    174  CB        22.6640   45.0980   25.8950 C.3   142  MET142      0.0427
    175  CG        22.2630   46.0280   24.7560 C.3   142  MET142      0.0599
    176  SD        23.6310   47.0590   24.1890 S.3   142  MET142     -0.1393
    177  CE        24.2660   46.0540   22.8730 C.3   142  MET142      0.0692
    178  N         22.3680   44.6390   29.2200 N.am  143  THR143     -0.1951
    179  CA        21.4960   44.2080   30.3110 C.3   143  THR143      0.1897
    180  C         21.9630   42.8590   30.8500 C.2   143  THR143      0.2313
    181  O         22.4140   42.0450   30.0170 O.2   143  THR143     -0.2863
    182  CB        20.0290   44.0670   29.8490 C.3   143  THR143      0.1794
    183  OG1       19.7080   45.4760   29.9770 O.3   143  THR143     -0.2208
    184  CG2       19.0400   43.4160   30.8060 C.3   143  THR143      0.0378
@<TRIPOS>BOND
     1    38    37    2
     2    37    36    1
     3    36    39    1
     4    36    35    1
     5   123   122    2
     6   122   121    1
     7    41    43   ar
     8    41    40   ar
     9    39    40    1
    10   120   121    1
    11    43    45   ar
    12   121   124    1
    13    40    42   ar
    14    96    95    2
    15    95    94    1
    16    93    94    1
    17   124   125    1
    18   115   114    2
    19    94    97    1
    20    45    44   ar
    21    42    44   ar
    22   114   113    1
    23   112   113    1
    24   113   116    1
    25   125   126    1
    26   126   127    1
    27    97    98    1
    28    99    98   ar
    29    99   101   ar
    30    98   100   ar
    31   101   103   ar
    32    91    90    2
    33    33    32    2
    34   100   102   ar
    35   103   102   ar
    36    88    89    1
    37   116   117    1
    38   119   117    1
    39    89    90    1
    40    89    92    1
    41    78    77   ar
    42    32    31    1
    43   117   118    1
    44   110   108    1
    45   105   106    1
    46   105   108    1
    47   105   104    1
    48   106   107    2
    49    79    77   ar
    50   109   108    1
    51   109   111    1
    52    31    30    1
    53    31    34    1
    54    77    76    1
    55    74    73    2
    56    72    73    1
    57    72    71    1
    58    72    75    1
    59    73    80   am
    60    76    75    1
    61    83    82    2
    62    53    52    1
    63    82    81    1
    64   135   134    1
    65   134   133    1
    66    80    81    1
    67   161   159   ar
    68   161   160   ar
    69   143   141    1
    70    22    21    2
    71   159   157   ar
    72   141   140    1
    73    81    84    1
    74   160   158   ar
    75   147   146    2
    76    52    51    1
    77   157   156   ar
    78    21    20    1
    79   133   132    1
    80   132   129    1
    81   158   156   ar
    82   144   145    1
    83    13    12    2
    84   140   142    1
    85   140   137    1
    86    51    50    1
    87   156   155    1
    88   177   176    1
    89   146   145    1
    90    84    86    1
    91    84    85    1
    92   148   145    1
    93   148   150    1
    94   148   149    1
    95    20    19    1
    96    20    23    1
    97   155   152    1
    98   136   137    1
    99   136   130   am
   100    12    19   am
   101    12    11    1
   102    25    27   ar
   103    25    24   ar
   104   137   138    1
   105    85    87    1
   106    46    47    1
   107   129   128    1
   108   129   130    1
   109   130   131    2
   110    27    29   ar
   111   176   175    1
   112    50    47    1
   113    23    24    1
   114    47    48    1
   115    11    14    1
   116    11    10    1
   117   169   168    1
   118    24    26   ar
   119   175   174    1
   120    17    16   ar
   121   168   167    1
   122   152   153    1
   123   152   151    1
   124   138   139    2
   125    14    15    1
   126    15    16    1
   127    29    28   ar
   128    57    56    2
   129   153   154    2
   130    16    18   ar
   131   174   171    1
   132    48    49    2
   133    26    28   ar
   134    55    56    1
   135    55    58    1
   136    55    54    1
   137    56    62   am
   138   167   166    1
   139    58    59    1
   140     4     3    2
   141   171   170    1
   142   171   172    1
   143    61    60    1
   144   166   163    1
   145   170   164   am
   146    62    63    1
   147    63    66    1
   148    63    64    1
   149     3     2    1
   150    67    66    1
   151    67    68    1
   152   164   165    2
   153   164   163    1
   154   173   172    2
   155   172   178   am
   156    59    60    1
   157   163   162    1
   158    64    65    2
   159     2     5    1
   160     2     1    1
   161   178   179    1
   162    68    69    1
   163    69    70    1
   164   182   183    1
   165   182   179    1
   166   182   184    1
   167     5     6    1
   168   181   180    2
   169   179   180    1
   170     6     7    1
   171     7     8    2
   172     7     9   am
