@<TRIPOS>MOLECULE
tmp/1qiwA01.pdb
 190 179 0 0 0
SMALL
GASTEIGER

@<TRIPOS>ATOM
      1  N          2.7010   11.4330   17.1680 N.3     3  LEU3       -0.1245
      2  CA         2.1130   11.7310   15.8680 C.3     3  LEU3        0.1561
      3  C          1.8090   10.4630   15.0760 C.2     3  LEU3        0.2260
      4  O          2.4450    9.4270   15.2730 O.2     3  LEU3       -0.2867
      5  CB         3.0700   12.6210   15.0740 C.3     3  LEU3        0.0270
      6  CG         4.1990   13.2260   15.9130 C.3     3  LEU3        0.0019
      7  CD1        5.5550   12.7910   15.3690 C.3     3  LEU3        0.0001
      8  CD2        4.0750   14.7350   15.9000 C.3     3  LEU3        0.0001
      9  N          1.5850   11.8740    9.7940 N.3     7  GLN7       -0.1245
     10  CA         2.2020   13.0270   10.4380 C.3     7  GLN7        0.1566
     11  C          3.7130   12.9050   10.3160 C.2     7  GLN7        0.2260
     12  O          4.3960   13.8860   10.0180 O.2     7  GLN7       -0.2867
     13  CB         1.8130   13.0930   11.9110 C.3     7  GLN7        0.0367
     14  CG         0.8240   14.1900   12.2340 C.3     7  GLN7        0.0905
     15  CD        -0.3550   13.6770   13.0270 C.2     7  GLN7        0.2608
     16  OE1       -0.2360   12.7070   13.7710 O.2     7  GLN7       -0.2717
     17  NE2       -1.5040   14.3250   12.8730 N.am    7  GLN7       -0.0878
     18  N          5.1000   13.5440    6.8570 N.3    10  GLU10      -0.1231
     19  CA         5.1630   14.9500    6.4910 C.3    10  GLU10       0.1699
     20  C          6.3540   15.6940    7.0800 C.2    10  GLU10       0.2592
     21  O          6.8500   16.6510    6.4870 O.2    10  GLU10      -0.2718
     22  CB         3.8710   15.6490    6.9150 C.3    10  GLU10       0.0402
     23  CG         3.7540   17.0550    6.3810 C.3    10  GLU10       0.1161
     24  CD         2.5540   17.7730    6.9310 C.2    10  GLU10       0.3649
     25  OE1        2.6230   18.2550    8.0820 O.co2  10  GLU10      -0.2457
     26  OE2        1.5430   17.8520    6.2100 O.co2  10  GLU10      -0.2457
     27  N          6.8070   15.2570    8.2480 N.am   11  PHE11      -0.1976
     28  CA         7.9490   15.8750    8.9000 C.3    11  PHE11       0.1639
     29  C          9.2360   15.4260    8.2110 C.2    11  PHE11       0.2290
     30  O         10.2040   16.1810    8.1310 O.2    11  PHE11      -0.2864
     31  CB         8.0020   15.4640   10.3710 C.3    11  PHE11       0.0560
     32  CG         7.0690   16.2340   11.2680 C.ar   11  PHE11      -0.0200
     33  CD1        7.0910   17.6190   11.2970 C.ar   11  PHE11      -0.0042
     34  CD2        6.2060   15.5660   12.1210 C.ar   11  PHE11      -0.0042
     35  CE1        6.2740   18.3270   12.1640 C.ar   11  PHE11      -0.0003
     36  CE2        5.3820   16.2670   12.9960 C.ar   11  PHE11      -0.0003
     37  CZ         5.4170   17.6470   13.0170 C.ar   11  PHE11      -0.0000
     38  N          9.4920   14.5420    4.9920 N.3    13  GLU13      -0.1231
     39  CA         9.5430   15.1220    3.6610 C.3    13  GLU13       0.1699
     40  C         10.0760   16.5520    3.7370 C.2    13  GLU13       0.2592
     41  O         10.8270   16.9960    2.8690 O.2    13  GLU13      -0.2718
     42  CB         8.1500   15.1130    3.0320 C.3    13  GLU13       0.0402
     43  CG         8.0550   15.8970    1.7390 C.3    13  GLU13       0.1161
     44  CD         8.2620   15.0310    0.5140 C.2    13  GLU13       0.3649
     45  OE1        7.2790   14.4180    0.0520 O.co2  13  GLU13      -0.2457
     46  OE2        9.4050   14.9630    0.0110 O.co2  13  GLU13      -0.2457
     47  N          9.6680   17.2700    4.7760 N.am   14  ALA14      -0.1980
     48  CA        10.1150   18.6390    4.9890 C.3    14  ALA14       0.1597
     49  C         11.5750   18.6060    5.4460 C.2    14  ALA14       0.2287
     50  O         12.3150   19.5590    5.2460 O.2    14  ALA14      -0.2864
     51  CB         9.2490   19.3150    6.0450 C.3    14  ALA14       0.0319
     52  N         10.0400   20.7390   16.2020 N.3    71  MET71      -0.1230
     53  CA         8.7690   20.8540   15.4950 C.3    71  MET71       0.1702
     54  C          7.5470   20.6510   16.3870 C.2    71  MET71       0.2592
     55  O          6.6840   21.5240   16.4840 O.2    71  MET71      -0.2718
     56  CB         8.7190   19.8470   14.3440 C.3    71  MET71       0.0401
     57  CG         9.3550   20.3380   13.0520 C.3    71  MET71       0.0596
     58  SD         8.9780   22.0570   12.6970 S.3    71  MET71      -0.1393
     59  CE         8.3480   21.9250   11.0340 C.3    71  MET71       0.0692
     60  N          7.4840   19.4950   17.0360 N.am   72  ALA72      -0.1966
     61  CA         6.3650   19.1400   17.9020 C.3    72  ALA72       0.1728
     62  C          6.0540   20.1180   19.0330 C.2    72  ALA72       0.2616
     63  O          5.5010   19.7190   20.0570 O.2    72  ALA72      -0.2715
     64  CB         6.5890   17.7470   18.4790 C.3    72  ALA72       0.0334
     65  N          6.3960   21.3900   18.8570 N.am   73  ARG73      -0.1963
     66  CA         6.1170   22.3830   19.8890 C.3    73  ARG73       0.1729
     67  C          6.6890   23.7650   19.6070 C.2    73  ARG73       0.2616
     68  O          7.8940   23.9370   19.4410 O.2    73  ARG73      -0.2715
     69  CB         6.6300   21.9030   21.2500 C.3    73  ARG73       0.0348
     70  CG         7.9880   21.2290   21.2160 C.3    73  ARG73       0.0492
     71  CD         8.8100   21.6580   20.0130 C.3    73  ARG73       0.2205
     72  NE         9.7550   22.7290   20.3190 N.pl3  73  ARG73      -0.0865
     73  CZ        10.5930   22.7220   21.3530 C.cat  73  ARG73       0.5346
     74  NH1       10.6120   21.6980   22.1970 N.pl3  73  ARG73       0.1354
     75  NH2       11.4310   23.7340   21.5310 N.pl3  73  ARG73       0.1354
     76  N          5.8070   24.7530   19.5540 N.am   74  LYS74      -0.1977
     77  CA         6.2210   26.1260   19.3210 C.3    74  LYS74       0.1596
     78  C          6.6100   26.6840   20.6800 C.2    74  LYS74       0.2287
     79  O          7.1030   27.8070   20.7910 O.2    74  LYS74      -0.2864
     80  CB         5.0630   26.9290   18.7310 C.3    74  LYS74       0.0298
     81  CG         4.1220   26.0970   17.8790 C.3    74  LYS74       0.0038
     82  CD         2.9190   26.9030   17.4320 C.3    74  LYS74       0.0206
     83  CE         2.4730   26.4960   16.0340 C.3    74  LYS74       0.1093
     84  NZ         1.2860   27.2750   15.5650 N.3    74  LYS74      -0.1314
     85  N          5.4780   32.9750    0.9380 N.3    91  PHE91      -0.1241
     86  CA         4.6450   32.4740   -0.1490 C.3    91  PHE91       0.1605
     87  C          3.8990   33.5760   -0.8930 C.2    91  PHE91       0.2264
     88  O          3.7910   33.5440   -2.1210 O.2    91  PHE91      -0.2867
     89  CB         3.6460   31.4490    0.3980 C.3    91  PHE91       0.0534
     90  CG         4.2710   30.1380    0.7780 C.ar   91  PHE91      -0.0203
     91  CD1        4.5860   29.2000   -0.1930 C.ar   91  PHE91      -0.0042
     92  CD2        4.5340   29.8390    2.1030 C.ar   91  PHE91      -0.0042
     93  CE1        5.1500   27.9840    0.1480 C.ar   91  PHE91      -0.0003
     94  CE2        5.0990   28.6240    2.4550 C.ar   91  PHE91      -0.0003
     95  CZ         5.4080   27.6910    1.4740 C.ar   91  PHE91      -0.0000
     96  N         -2.4610   33.6720   -1.0720 N.3    99  ILE99      -0.1245
     97  CA        -1.4750   32.7750   -1.6660 C.3    99  ILE99       0.1561
     98  C         -2.1430   31.9790   -2.7860 C.2    99  ILE99       0.2260
     99  O         -3.1450   31.3020   -2.5700 O.2    99  ILE99      -0.2867
    100  CB        -0.9120   31.7650   -0.6370 C.3    99  ILE99       0.0252
    101  CG1       -0.1360   32.4950    0.4530 C.3    99  ILE99       0.0019
    102  CG2        0.0210   30.7770   -1.3330 C.3    99  ILE99       0.0019
    103  CD1        0.2560   31.6020    1.6170 C.3    99  ILE99       0.0001
    104  N          2.6640   29.1410   -4.6750 N.3   104  LEU104     -0.1245
    105  CA         3.0190   27.9720   -3.9050 C.3   104  LEU104      0.1561
    106  C          3.9310   27.0860   -4.7400 C.2   104  LEU104      0.2260
    107  O          4.9630   26.6130   -4.2700 O.2   104  LEU104     -0.2867
    108  CB         1.7610   27.1920   -3.5170 C.3   104  LEU104      0.0270
    109  CG         2.0740   25.9630   -2.6610 C.3   104  LEU104      0.0019
    110  CD1        2.2430   26.4010   -1.2170 C.3   104  LEU104      0.0001
    111  CD2        0.9820   24.9330   -2.7940 C.3   104  LEU104      0.0001
    112  N          7.8110   26.2040   -3.7420 N.3   108  MET108     -0.1245
    113  CA         8.1400   24.8010   -3.5320 C.3   108  MET108      0.1570
    114  C          9.2750   24.3920   -4.4580 C.2   108  MET108      0.2261
    115  O         10.1480   23.6130   -4.0840 O.2   108  MET108     -0.2867
    116  CB         6.9140   23.9250   -3.8090 C.3   108  MET108      0.0387
    117  CG         6.1180   23.5640   -2.5660 C.3   108  MET108      0.0595
    118  SD         7.0730   23.7340   -1.0500 S.3   108  MET108     -0.1393
    119  CE         6.0990   22.7600    0.0610 C.3   108  MET108      0.0692
    120  N         -3.1370   20.5340   -2.1190 N.3   123  MET123     -0.1230
    121  CA        -2.6190   21.3310   -1.0200 C.3   123  MET123      0.1702
    122  C         -3.4480   22.6000   -0.8860 C.2   123  MET123      0.2592
    123  O         -3.7230   23.0600    0.2240 O.2   123  MET123     -0.2718
    124  CB        -1.1600   21.6970   -1.2750 C.3   123  MET123      0.0401
    125  CG        -0.1680   20.6130   -0.9270 C.3   123  MET123      0.0596
    126  SD         1.3760   20.8520   -1.8150 S.3   123  MET123     -0.1393
    127  CE         2.5420   20.9610   -0.4400 C.3   123  MET123      0.0692
    128  N         -3.8470   23.1660   -2.0240 N.am  124  ILE124     -0.1980
    129  CA        -4.6550   24.3810   -2.0260 C.3   124  ILE124      0.1595
    130  C         -6.1010   24.0650   -1.6490 C.2   124  ILE124      0.2287
    131  O         -6.6780   24.7200   -0.7840 O.2   124  ILE124     -0.2864
    132  CB        -4.6400   25.0680   -3.4130 C.3   124  ILE124      0.0276
    133  CG1       -3.2820   25.7230   -3.6630 C.3   124  ILE124      0.0022
    134  CG2       -5.7320   26.1220   -3.4840 C.3   124  ILE124      0.0022
    135  CD1       -2.9740   26.8880   -2.7330 C.3   124  ILE124      0.0001
    136  N         -7.3880   21.6480    0.0700 N.3   126  GLU126     -0.1231
    137  CA        -7.5060   21.3040    1.4790 C.3   126  GLU126      0.1699
    138  C         -7.4480   22.5160    2.4070 C.2   126  GLU126      0.2592
    139  O         -8.0870   22.5270    3.4570 O.2   126  GLU126     -0.2718
    140  CB        -6.3940   20.3270    1.8670 C.3   126  GLU126      0.0402
    141  CG        -6.8860   18.9470    2.2560 C.3   126  GLU126      0.1161
    142  CD        -6.0520   18.3270    3.3570 C.2   126  GLU126      0.3649
    143  OE1       -4.8120   18.4600    3.3080 O.co2 126  GLU126     -0.2457
    144  OE2       -6.6390   17.7100    4.2730 O.co2 126  GLU126     -0.2457
    145  N         -6.6770   23.5290    2.0230 N.am  127  ALA127     -0.1980
    146  CA        -6.5210   24.7200    2.8510 C.3   127  ALA127      0.1597
    147  C         -7.5830   25.7780    2.5930 C.2   127  ALA127      0.2287
    148  O         -7.9610   26.5180    3.5040 O.2   127  ALA127     -0.2864
    149  CB        -5.1360   25.3120    2.6470 C.3   127  ALA127      0.0319
    150  N         -5.3990   30.7720   -0.7620 N.3   135  VAL135     -0.1245
    151  CA        -5.2500   30.6530    0.6800 C.3   135  VAL135      0.1561
    152  C         -4.8900   31.9730    1.3430 C.2   135  VAL135      0.2260
    153  O         -3.7840   32.4630    1.1780 O.2   135  VAL135     -0.2867
    154  CB        -4.1780   29.6220    1.0310 C.3   135  VAL135      0.0252
    155  CG1       -4.0350   29.5180    2.5370 C.3   135  VAL135      0.0019
    156  CG2       -4.5520   28.2710    0.4270 C.3   135  VAL135      0.0019
    157  N         -4.4500   30.0210    6.0180 N.3   140  PHE140     -0.1241
    158  CA        -3.0690   29.5830    6.2370 C.3   140  PHE140      0.1605
    159  C         -2.7830   29.2290    7.7000 C.2   140  PHE140      0.2264
    160  O         -2.2520   28.1560    7.9970 O.2   140  PHE140     -0.2867
    161  CB        -2.0910   30.6740    5.7860 C.3   140  PHE140      0.0534
    162  CG        -0.6460   30.2660    5.8670 C.ar  140  PHE140     -0.0203
    163  CD1       -0.0570   29.5520    4.8370 C.ar  140  PHE140     -0.0042
    164  CD2        0.1210   30.5830    6.9840 C.ar  140  PHE140     -0.0042
    165  CE1        1.2760   29.1600    4.9240 C.ar  140  PHE140     -0.0003
    166  CE2        1.4480   30.1940    7.0770 C.ar  140  PHE140     -0.0003
    167  CZ         2.0290   29.4860    6.0530 C.ar  140  PHE140     -0.0000
    168  N         -4.5390   26.0270    8.9500 N.3   143  MET143     -0.1230
    169  CA        -3.9310   24.8580    8.3250 C.3   143  MET143      0.1702
    170  C         -2.6680   24.4310    9.0700 C.2   143  MET143      0.2592
    171  O         -2.2970   23.2570    9.0580 O.2   143  MET143     -0.2718
    172  CB        -3.5940   25.1590    6.8610 C.3   143  MET143      0.0401
    173  CG        -2.1050   25.2660    6.5720 C.3   143  MET143      0.0596
    174  SD        -1.3150   23.6560    6.3960 S.3   143  MET143     -0.1393
    175  CE         0.4060   24.0960    6.6040 C.3   143  MET143      0.0692
    176  N         -2.0130   25.3900    9.7170 N.am  144  MET144     -0.1965
    177  CA        -0.7950   25.1100   10.4700 C.3   144  MET144      0.1736
    178  C         -1.1300   24.4230   11.7870 C.2   144  MET144      0.2617
    179  O         -0.5620   23.3820   12.1180 O.2   144  MET144     -0.2715
    180  CB        -0.0320   26.4070   10.7560 C.3   144  MET144      0.0427
    181  CG         0.3310   27.2180    9.5180 C.3   144  MET144      0.0599
    182  SD         1.3500   26.3140    8.3340 S.3   144  MET144     -0.1393
    183  CE         2.2000   25.1690    9.4110 C.3   144  MET144      0.0692
    184  N         -2.0570   25.0150   12.5340 N.am  145  THR145     -0.1951
    185  CA        -2.4750   24.4710   13.8200 C.3   145  THR145      0.1897
    186  C         -3.6700   25.2450   14.3680 C.2   145  THR145      0.2313
    187  O         -4.7830   24.7230   14.4350 O.2   145  THR145     -0.2863
    188  CB        -1.3350   24.5460   14.8500 C.3   145  THR145      0.1794
    189  OG1       -0.4330   25.5990   14.4850 O.3   145  THR145     -0.2208
    190  CG2       -0.5770   23.2240   14.9050 C.3   145  THR145      0.0378
@<TRIPOS>BOND
     1   106   107    2
     2   106   105    1
     3   104   105    1
     4   114   115    2
     5   114   113    1
     6   105   108    1
     7   116   113    1
     8   116   117    1
     9   112   113    1
    10   133   132    1
    11   133   135    1
    12   108   109    1
    13   134   132    1
    14   132   129    1
    15   111   109    1
    16    98    99    2
    17    98    97    1
    18   109   110    1
    19   117   118    1
    20    88    87    2
    21   120   121    1
    22   129   128    1
    23   129   130    1
    24   128   122   am
    25   126   125    1
    26   126   127    1
    27    97    96    1
    28    97   100    1
    29   130   131    2
    30   102   100    1
    31   124   121    1
    32   124   125    1
    33   118   119    1
    34   121   122    1
    35    87    86    1
    36   122   123    2
    37   150   151    1
    38   100   101    1
    39    91    93   ar
    40    91    90   ar
    41    86    89    1
    42    86    85    1
    43    46    44   ar
    44    45    44   ar
    45   136   137    1
    46    93    95   ar
    47    89    90    1
    48   156   154    1
    49   101   103    1
    50    44    43    1
    51   151   154    1
    52   151   152    1
    53    90    92   ar
    54   154   155    1
    55   153   152    2
    56    95    94   ar
    57   137   140    1
    58   137   138    1
    59    43    42    1
    60   140   141    1
    61   145   138   am
    62   145   146    1
    63    92    94   ar
    64   141   142    1
    65   138   139    2
    66   147   146    1
    67   147   148    2
    68   149   146    1
    69    41    40    2
    70    42    39    1
    71   143   142   ar
    72   142   144   ar
    73    39    40    1
    74    39    38    1
    75    40    47   am
    76    47    48    1
    77   163   165   ar
    78   163   162   ar
    79   165   167   ar
    80    48    49    1
    81    48    51    1
    82    50    49    2
    83   161   162    1
    84   161   158    1
    85   162   164   ar
    86   157   158    1
    87   167   166   ar
    88    26    24   ar
    89   158   159    1
    90    23    22    1
    91    23    24    1
    92   174   173    1
    93   174   175    1
    94    21    20    2
    95    19    18    1
    96    19    22    1
    97    19    20    1
    98   173   172    1
    99   172   169    1
   100    24    25   ar
   101   164   166   ar
   102    20    27   am
   103   159   160    2
   104    30    29    2
   105    29    28    1
   106    27    28    1
   107   169   168    1
   108   169   170    1
   109   182   183    1
   110   182   181    1
   111    28    31    1
   112   171   170    2
   113   170   176   am
   114   181   180    1
   115   176   177    1
   116     9    10    1
   117    12    11    2
   118    11    10    1
   119    31    32    1
   120    10    13    1
   121   177   180    1
   122   177   178    1
   123    59    58    1
   124    32    33   ar
   125    32    34   ar
   126    33    35   ar
   127   178   179    2
   128   178   184   am
   129    13    14    1
   130    34    36   ar
   131    35    37   ar
   132    14    15    1
   133   184   185    1
   134    58    57    1
   135    17    15   am
   136    36    37   ar
   137    15    16    2
   138    57    56    1
   139   185   186    1
   140   185   188    1
   141    56    53    1
   142   186   187    2
   143   189   188    1
   144   188   190    1
   145     5     2    1
   146     5     6    1
   147     3     4    2
   148     3     2    1
   149     7     6    1
   150    53    52    1
   151    53    54    1
   152    84    83    1
   153     2     1    1
   154     8     6    1
   155    83    82    1
   156    54    55    2
   157    54    60   am
   158    60    61    1
   159    82    81    1
   160    81    80    1
   161    61    64    1
   162    61    62    1
   163    80    77    1
   164    65    62   am
   165    65    66    1
   166    62    63    2
   167    77    76    1
   168    77    78    1
   169    68    67    2
   170    76    67   am
   171    67    66    1
   172    66    69    1
   173    71    72    1
   174    71    70    1
   175    72    73    2
   176    78    79    2
   177    70    69    1
   178    73    75    1
   179    73    74    1
