@<TRIPOS>MOLECULE
tmp/1qiwA00.pdb
 159 148 0 0 0
SMALL
GASTEIGER

@<TRIPOS>ATOM
      1  N         15.8650   20.0030    3.4630 N.3    18  PHE18      -0.1241
      2  CA        17.0340   20.6630    4.0420 C.3    18  PHE18       0.1605
      3  C         18.2400   19.7730    3.7850 C.2    18  PHE18       0.2264
      4  O         19.3400   20.2470    3.5320 O.2    18  PHE18      -0.2867
      5  CB        16.8530   20.8460    5.5540 C.3    18  PHE18       0.0534
      6  CG        15.8240   21.8790    5.9210 C.ar   18  PHE18      -0.0203
      7  CD1       16.1750   23.2140    6.0400 C.ar   18  PHE18      -0.0042
      8  CD2       14.4930   21.5110    6.1200 C.ar   18  PHE18      -0.0042
      9  CE1       15.2210   24.1680    6.3450 C.ar   18  PHE18      -0.0003
     10  CE2       13.5330   22.4580    6.4270 C.ar   18  PHE18      -0.0003
     11  CZ        13.8990   23.7940    6.5380 C.ar   18  PHE18      -0.0000
     12  N         21.5680   17.5690    8.5950 N.3    26  ILE26      -0.1245
     13  CA        21.5010   18.8910    7.9990 C.3    26  ILE26       0.1561
     14  C         22.7430   19.6540    8.4500 C.2    26  ILE26       0.2260
     15  O         23.0400   19.7550    9.6500 O.2    26  ILE26      -0.2867
     16  CB        20.2380   19.6630    8.4550 C.3    26  ILE26       0.0252
     17  CG1       18.9890   18.7860    8.2610 C.3    26  ILE26       0.0019
     18  CG2       20.0970   20.9410    7.6600 C.3    26  ILE26       0.0019
     19  CD1       17.6830   19.5480    8.2740 C.3    26  ILE26       0.0001
     20  N         21.8220   24.2920    5.0220 N.3    31  LEU31      -0.1245
     21  CA        20.8430   25.2480    5.5380 C.3    31  LEU31       0.1561
     22  C         20.9830   26.5630    4.7680 C.2    31  LEU31       0.2260
     23  O         19.9950   27.2380    4.4570 O.2    31  LEU31      -0.2867
     24  CB        21.0760   25.4910    7.0330 C.3    31  LEU31       0.0270
     25  CG        20.0820   26.4080    7.7480 C.3    31  LEU31       0.0019
     26  CD1       18.7390   25.6990    7.8900 C.3    31  LEU31       0.0001
     27  CD2       20.6260   26.7910    9.1170 C.3    31  LEU31       0.0001
     28  N         19.2570   26.5570    1.4280 N.3    34  VAL34      -0.1231
     29  CA        17.8330   26.7520    1.6040 C.3    34  VAL34       0.1692
     30  C         17.5080   28.2340    1.8270 C.2    34  VAL34       0.2591
     31  O         16.5310   28.7530    1.2890 O.2    34  VAL34      -0.2718
     32  CB        17.3260   25.9270    2.7920 C.3    34  VAL34       0.0266
     33  CG1       15.9280   26.3510    3.1470 C.3    34  VAL34       0.0020
     34  CG2       17.3820   24.4350    2.4470 C.3    34  VAL34       0.0020
     35  N         18.3310   28.9100    2.6210 N.am   35  MET35      -0.1979
     36  CA        18.1240   30.3260    2.9070 C.3    35  MET35       0.1605
     37  C         18.2520   31.1530    1.6320 C.2    35  MET35       0.2287
     38  O         17.4380   32.0360    1.3610 O.2    35  MET35      -0.2864
     39  CB        19.1450   30.8090    3.9370 C.3    35  MET35       0.0413
     40  CG        19.0530   30.1040    5.2830 C.3    35  MET35       0.0598
     41  SD        17.8390   30.8840    6.3520 S.3    35  MET35      -0.1393
     42  CE        16.3800   29.9620    5.9290 C.3    35  MET35       0.0692
     43  N         15.4660   31.2180   -0.5880 N.3    38  LEU38      -0.1245
     44  CA        14.3890   32.0760   -0.1110 C.3    38  LEU38       0.1561
     45  C         14.7410   33.5550   -0.2340 C.2    38  LEU38       0.2260
     46  O         14.1010   34.4050    0.3830 O.2    38  LEU38      -0.2867
     47  CB        14.0660   31.7490    1.3480 C.3    38  LEU38       0.0270
     48  CG        13.1350   30.5550    1.5700 C.3    38  LEU38       0.0019
     49  CD1       12.2040   30.4040    0.3810 C.3    38  LEU38       0.0001
     50  CD2       13.9630   29.2910    1.7670 C.3    38  LEU38       0.0001
     51  N         21.9350   29.3330   14.1980 N.3    50  MET50      -0.1230
     52  CA        20.6280   28.7350   13.9470 C.3    50  MET50       0.1702
     53  C         20.6780   27.2370   14.2440 C.2    50  MET50       0.2592
     54  O         19.7290   26.6680   14.7790 O.2    50  MET50      -0.2718
     55  CB        20.2130   28.9740   12.4870 C.3    50  MET50       0.0401
     56  CG        19.6000   30.3580   12.2480 C.3    50  MET50       0.0596
     57  SD        19.5170   30.8960   10.5130 S.3    50  MET50      -0.1393
     58  CE        17.7690   30.7440   10.1980 C.3    50  MET50       0.0692
     59  N         21.7960   26.6070   13.9010 N.am   51  ILE51      -0.1980
     60  CA        21.9800   25.1810   14.1380 C.3    51  ILE51       0.1595
     61  C         22.1470   24.8980   15.6340 C.2    51  ILE51       0.2287
     62  O         21.4490   24.0510   16.2010 O.2    51  ILE51      -0.2864
     63  CB        23.2230   24.6570   13.3870 C.3    51  ILE51       0.0276
     64  CG1       23.1310   25.0290   11.9030 C.3    51  ILE51       0.0022
     65  CG2       23.3390   23.1550   13.5500 C.3    51  ILE51       0.0022
     66  CD1       22.3030   24.0660   11.0590 C.3    51  ILE51       0.0001
     67  N         21.0780   26.2240   18.0770 N.3    53  GLU53      -0.1231
     68  CA        19.8330   26.3670   18.8200 C.3    53  GLU53       0.1699
     69  C         19.0400   25.0680   18.9190 C.2    53  GLU53       0.2592
     70  O         18.1890   24.9240   19.8000 O.2    53  GLU53      -0.2718
     71  CB        18.9630   27.4440   18.1690 C.3    53  GLU53       0.0402
     72  CG        19.1160   28.8160   18.7920 C.3    53  GLU53       0.1161
     73  CD        17.9490   29.7270   18.4810 C.2    53  GLU53       0.3649
     74  OE1       17.9680   30.3760   17.4110 O.co2  53  GLU53      -0.2457
     75  OE2       17.0130   29.7940   19.3060 O.co2  53  GLU53      -0.2457
     76  N         19.3210   24.1200   18.0270 N.am   54  VAL54      -0.1980
     77  CA        18.6000   22.8470   18.0250 C.3    54  VAL54       0.1595
     78  C         19.4990   21.6070   18.1050 C.2    54  VAL54       0.2287
     79  O         19.0100   20.4890   18.2640 O.2    54  VAL54      -0.2864
     80  CB        17.6850   22.7460   16.7700 C.3    54  VAL54       0.0276
     81  CG1       18.5110   22.9050   15.5040 C.3    54  VAL54       0.0022
     82  CG2       16.9360   21.4170   16.7660 C.3    54  VAL54       0.0022
     83  N         22.1590   18.5920   12.3510 N.3    62  ILE62      -0.1245
     84  CA        20.8030   18.3010   12.8060 C.3    62  ILE62       0.1561
     85  C         20.3000   16.9950   12.2030 C.2    62  ILE62       0.2260
     86  O         20.4810   16.7540   11.0110 O.2    62  ILE62      -0.2867
     87  CB        19.8020   19.4000   12.3660 C.3    62  ILE62       0.0252
     88  CG1       20.2640   20.8010   12.8040 C.3    62  ILE62       0.0019
     89  CG2       18.4210   19.0500   12.8750 C.3    62  ILE62       0.0019
     90  CD1       20.7800   20.9240   14.2300 C.3    62  ILE62       0.0001
     91  N         15.3690   17.3340   14.6150 N.3    67  PHE67      -0.1241
     92  CA        14.4120   18.1230   13.8430 C.3    67  PHE67       0.1605
     93  C         12.9870   18.0350   14.3870 C.2    67  PHE67       0.2264
     94  O         12.3050   19.0470   14.5380 O.2    67  PHE67      -0.2867
     95  CB        14.4170   17.6890   12.3760 C.3    67  PHE67       0.0534
     96  CG        13.6730   18.6320   11.4640 C.ar   67  PHE67      -0.0203
     97  CD1       14.2490   19.8260   11.0550 C.ar   67  PHE67      -0.0042
     98  CD2       12.4020   18.3210   11.0110 C.ar   67  PHE67      -0.0042
     99  CE1       13.5710   20.6920   10.2100 C.ar   67  PHE67      -0.0003
    100  CE2       11.7160   19.1870   10.1630 C.ar   67  PHE67      -0.0003
    101  CZ        12.3030   20.3710    9.7630 C.ar   67  PHE67      -0.0000
    102  N         12.1230   20.0640   17.8420 N.3    70  MET70      -0.1230
    103  CA        11.8460   21.4820   17.6390 C.3    70  MET70       0.1702
    104  C         10.5010   21.7220   16.9680 C.2    70  MET70       0.2592
    105  O          9.8840   22.7730   17.1520 O.2    70  MET70      -0.2718
    106  CB        12.9700   22.1160   16.8040 C.3    70  MET70       0.0401
    107  CG        12.5190   23.2240   15.8710 C.3    70  MET70       0.0596
    108  SD        13.3420   23.1780   14.2640 S.3    70  MET70      -0.1393
    109  CE        14.2520   24.7290   14.3180 C.3    70  MET70       0.0692
    110  N         10.0400   20.7390   16.2020 N.am   71  MET71      -0.1979
    111  CA         8.7690   20.8540   15.4950 C.3    71  MET71       0.1605
    112  C          7.5470   20.6510   16.3870 C.2    71  MET71       0.2287
    113  O          6.6840   21.5240   16.4840 O.2    71  MET71      -0.2864
    114  CB         8.7190   19.8470   14.3440 C.3    71  MET71       0.0413
    115  CG         9.3550   20.3380   13.0520 C.3    71  MET71       0.0598
    116  SD         8.9780   22.0570   12.6970 S.3    71  MET71      -0.1393
    117  CE         8.3480   21.9250   11.0340 C.3    71  MET71       0.0692
    118  N          6.3960   21.3900   18.8570 N.3    73  ARG73      -0.1231
    119  CA         6.1170   22.3830   19.8890 C.3    73  ARG73       0.1694
    120  C          6.6890   23.7650   19.6070 C.2    73  ARG73       0.2591
    121  O          7.8940   23.9370   19.4410 O.2    73  ARG73      -0.2718
    122  CB         6.6300   21.9030   21.2500 C.3    73  ARG73       0.0321
    123  CG         7.9880   21.2290   21.2160 C.3    73  ARG73       0.0489
    124  CD         8.8100   21.6580   20.0130 C.3    73  ARG73       0.2205
    125  NE         9.7550   22.7290   20.3190 N.pl3  73  ARG73      -0.0865
    126  CZ        10.5930   22.7220   21.3530 C.cat  73  ARG73       0.5346
    127  NH1       10.6120   21.6980   22.1970 N.pl3  73  ARG73       0.1354
    128  NH2       11.4310   23.7340   21.5310 N.pl3  73  ARG73       0.1354
    129  N          5.8070   24.7530   19.5540 N.am   74  LYS74      -0.1980
    130  CA         6.2210   26.1260   19.3210 C.3    74  LYS74       0.1596
    131  C          6.6100   26.6840   20.6800 C.2    74  LYS74       0.2287
    132  O          7.1030   27.8070   20.7910 O.2    74  LYS74      -0.2864
    133  CB         5.0630   26.9290   18.7310 C.3    74  LYS74       0.0298
    134  CG         4.1220   26.0970   17.8790 C.3    74  LYS74       0.0038
    135  CD         2.9190   26.9030   17.4320 C.3    74  LYS74       0.0206
    136  CE         2.4730   26.4960   16.0340 C.3    74  LYS74       0.1093
    137  NZ         1.2860   27.2750   15.5650 N.3    74  LYS74      -0.1314
    138  N          6.2970   33.7350   13.3720 N.3    83  GLU83      -0.1231
    139  CA         6.9840   32.8110   12.4830 C.3    83  GLU83       0.1699
    140  C          6.0240   32.4050   11.3730 C.2    83  GLU83       0.2592
    141  O          6.4130   32.2850   10.2100 O.2    83  GLU83      -0.2718
    142  CB         7.4420   31.5780   13.2620 C.3    83  GLU83       0.0402
    143  CG         8.7800   31.7510   13.9530 C.3    83  GLU83       0.1161
    144  CD         9.1430   30.5620   14.8130 C.2    83  GLU83       0.3649
    145  OE1        8.4890   30.3640   15.8580 O.co2  83  GLU83      -0.2457
    146  OE2       10.0820   29.8260   14.4440 O.co2  83  GLU83      -0.2457
    147  N          4.7640   32.1960   11.7450 N.am   84  ILE84      -0.1980
    148  CA         3.7350   31.8230   10.7840 C.3    84  ILE84       0.1595
    149  C          3.4900   33.0270    9.8810 C.2    84  ILE84       0.2287
    150  O          3.1630   32.8800    8.7090 O.2    84  ILE84      -0.2864
    151  CB         2.4000   31.4450   11.4860 C.3    84  ILE84       0.0276
    152  CG1        2.6180   30.2530   12.4190 C.3    84  ILE84       0.0022
    153  CG2        1.3440   31.0980   10.4480 C.3    84  ILE84       0.0022
    154  CD1        1.3450   29.7190   13.0410 C.3    84  ILE84       0.0001
    155  N          6.3460   32.9820    7.4550 N.3    87  ALA87      -0.1245
    156  CA         6.1450   31.8350    6.5630 C.3    87  ALA87       0.1562
    157  C          5.1540   32.2330    5.4720 C.2    87  ALA87       0.2260
    158  O          5.3910   32.0120    4.2850 O.2    87  ALA87      -0.2867
    159  CB         5.6010   30.6390    7.3500 C.3    87  ALA87       0.0290
@<TRIPOS>BOND
     1    43    44    1
     2    45    44    1
     3    45    46    2
     4    44    47    1
     5    49    48    1
     6    31    30    2
     7    47    48    1
     8    38    37    2
     9    28    29    1
    10    48    50    1
    11    29    30    1
    12    29    32    1
    13    37    36    1
    14    30    35   am
    15    34    32    1
    16    35    36    1
    17    32    33    1
    18    36    39    1
    19     1     2    1
    20     4     3    2
    21     3     2    1
    22    39    40    1
    23     2     5    1
    24   158   157    2
    25    23    22    2
    26    22    21    1
    27    20    21    1
    28    40    41    1
    29   157   156    1
    30    21    24    1
    31     5     6    1
    32     6     7   ar
    33     6     8   ar
    34    42    41    1
    35     7     9   ar
    36     8    10   ar
    37     9    11   ar
    38    10    11   ar
    39   156   159    1
    40   156   155    1
    41    24    25    1
    42    18    16    1
    43    25    26    1
    44    25    27    1
    45    13    14    1
    46    13    16    1
    47    13    12    1
    48    17    19    1
    49    17    16    1
    50    14    15    2
    51   150   149    2
    52   101   100   ar
    53   101    99   ar
    54   149   148    1
    55   100    98   ar
    56    58    57    1
    57    99    97   ar
    58   141   140    2
    59   153   151    1
    60    57    56    1
    61   148   151    1
    62   148   147    1
    63    86    85    2
    64    98    96   ar
    65   117   116    1
    66    97    96   ar
    67    66    64    1
    68   140   147   am
    69   140   139    1
    70    96    95    1
    71   151   152    1
    72    64    63    1
    73    85    84    1
    74    56    55    1
    75    83    84    1
    76    87    88    1
    77    87    84    1
    78    87    89    1
    79    95    92    1
    80   152   154    1
    81   139   142    1
    82   139   138    1
    83    55    52    1
    84   116   115    1
    85    88    90    1
    86   115   114    1
    87   142   143    1
    88    63    65    1
    89    63    60    1
    90    92    93    1
    91    92    91    1
    92    59    60    1
    93    59    53   am
    94    52    51    1
    95    52    53    1
    96   143   144    1
    97    60    61    1
    98    53    54    2
    99   108   109    1
   100   108   107    1
   101   114   111    1
   102    93    94    2
   103   146   144   ar
   104   144   145   ar
   105   111   110    1
   106   111   112    1
   107    81    80    1
   108   137   136    1
   109    61    62    2
   110   107   106    1
   111   136   135    1
   112   110   104   am
   113   112   113    2
   114    82    80    1
   115    80    77    1
   116   106   103    1
   117   104   105    2
   118   104   103    1
   119    74    73   ar
   120   135   134    1
   121   103   102    1
   122   134   133    1
   123    77    76    1
   124    77    78    1
   125    76    69   am
   126    67    68    1
   127    78    79    2
   128    71    72    1
   129    71    68    1
   130    73    72    1
   131    73    75   ar
   132   133   130    1
   133    68    69    1
   134   118   119    1
   135    69    70    2
   136   130   129    1
   137   130   131    1
   138   121   120    2
   139   129   120   am
   140   120   119    1
   141   119   122    1
   142   124   125    1
   143   124   123    1
   144   125   126    2
   145   131   132    2
   146   123   122    1
   147   126   128    1
   148   126   127    1
