@<TRIPOS>MOLECULE
tmp/1qj1B01.pdb
 235 235 0 0 0
SMALL
GASTEIGER

@<TRIPOS>ATOM
      1  N          7.6150   25.9550   62.3650 N.3    27  LEU27      -0.1231
      2  CA         6.6090   25.5290   61.3630 C.3    27  LEU27       0.1693
      3  C          6.9930   25.7800   59.9010 C.2    27  LEU27       0.2592
      4  O          6.9150   24.9500   59.0150 O.2    27  LEU27      -0.2718
      5  CB         5.3140   26.2890   61.6580 C.3    27  LEU27       0.0284
      6  CG         4.7230   25.9400   63.0090 C.3    27  LEU27       0.0019
      7  CD1        3.3750   26.6260   63.0740 C.3    27  LEU27       0.0001
      8  CD2        4.5590   24.4170   63.2560 C.3    27  LEU27       0.0001
      9  N          7.4500   27.0160   59.6870 N.am   28  CYS28      -0.1970
     10  CA         7.6100   27.5740   58.3340 C.3    28  CYS28       0.1712
     11  C          8.3690   28.8770   58.3680 C.2    28  CYS28       0.2296
     12  O          8.5480   29.4850   59.4170 O.2    28  CYS28      -0.2864
     13  CB         6.2340   27.9210   57.7490 C.3    28  CYS28       0.0983
     14  SG         5.3770   26.5530   56.8990 S.3    28  CYS28      -0.0798
     15  N         -0.5480   27.0130   53.1580 N.3    43  HIS43      -0.1241
     16  CA        -0.3870   25.6350   53.6360 C.3    43  HIS43       0.1621
     17  C          0.3720   25.3970   54.9310 C.2    43  HIS43       0.2264
     18  O          0.2390   24.3610   55.5460 O.2    43  HIS43      -0.2867
     19  CB         0.1740   24.6740   52.5700 C.3    43  HIS43       0.0745
     20  CG         1.6460   24.7500   52.4120 C.ar   43  HIS43       0.0817
     21  ND1        2.2470   25.5030   51.4950 N.ar   43  HIS43      -0.2268
     22  CD2        2.6020   24.1130   53.1950 C.ar   43  HIS43       0.1154
     23  CE1        3.5940   25.3700   51.6780 C.ar   43  HIS43       0.1986
     24  NE2        3.8000   24.5250   52.7280 N.ar   43  HIS43      -0.2212
     25  N         -4.0270   22.8900   56.2570 N.3    47  TYR47      -0.1241
     26  CA        -3.8550   21.7600   55.3750 C.3    47  TYR47       0.1605
     27  C         -4.5920   20.5090   55.8410 C.2    47  TYR47       0.2264
     28  O         -4.0390   19.5740   56.4140 O.2    47  TYR47      -0.2867
     29  CB        -2.3610   21.5120   55.2190 C.3    47  TYR47       0.0534
     30  CG        -2.0870   20.6300   54.0370 C.ar   47  TYR47      -0.0201
     31  CD1       -2.5340   21.0230   52.7740 C.ar   47  TYR47      -0.0009
     32  CD2       -1.4160   19.4330   54.2210 C.ar   47  TYR47      -0.0009
     33  CE1       -2.3280   20.2200   51.6570 C.ar   47  TYR47       0.0417
     34  CE2       -1.2130   18.6310   53.1110 C.ar   47  TYR47       0.0417
     35  CZ        -1.6610   19.0210   51.8440 C.ar   47  TYR47       0.1957
     36  OH        -1.4570   18.1910   50.7740 O.3    47  TYR47      -0.2866
     37  N         -3.6940   16.6650   56.2430 N.3    50  TRP50      -0.1241
     38  CA        -2.7920   16.3610   57.3640 C.3    50  TRP50       0.1605
     39  C         -3.2640   16.8500   58.7050 C.2    50  TRP50       0.2264
     40  O         -2.5030   17.0740   59.6220 O.2    50  TRP50      -0.2867
     41  CB        -1.4080   16.9590   57.1540 C.3    50  TRP50       0.0550
     42  CG        -0.7220   16.2970   55.9970 C.ar   50  TRP50       0.0003
     43  CD1       -1.1630   15.2010   55.2280 C.ar   50  TRP50       0.0946
     44  CD2        0.4990   16.6660   55.4260 C.ar   50  TRP50       0.0152
     45  NE1       -0.3190   14.8620   54.2140 N.ar   50  TRP50      -0.2442
     46  CE2        0.7270   15.7420   54.2800 C.ar   50  TRP50       0.0810
     47  CE3        1.4170   17.6690   55.7130 C.ar   50  TRP50       0.0012
     48  CZ2        1.8580   15.9060   53.4900 C.ar   50  TRP50       0.0191
     49  CZ3        2.5430   17.7870   54.8950 C.ar   50  TRP50       0.0001
     50  CH2        2.7580   16.9300   53.8030 C.ar   50  TRP50       0.0015
     51  N         -3.9230   19.7280   59.5970 N.3    52  LYS52      -0.1245
     52  CA        -3.3730   21.0180   60.0190 C.3    52  LYS52       0.1561
     53  C         -4.3280   22.1580   59.8830 C.2    52  LYS52       0.2260
     54  O         -4.8790   22.4360   58.8340 O.2    52  LYS52      -0.2867
     55  CB        -2.1210   21.2930   59.2300 C.3    52  LYS52       0.0271
     56  CG        -1.3990   22.5580   59.6640 C.3    52  LYS52       0.0035
     57  CD        -0.2610   22.8990   58.6910 C.3    52  LYS52       0.0206
     58  CE         0.9580   21.9760   58.7060 C.3    52  LYS52       0.1093
     59  NZ         1.9000   22.4460   57.6740 N.3    52  LYS52      -0.1314
     60  N         -6.5250   20.1810   45.5000 N.3    94  GLU94      -0.1231
     61  CA        -5.6950   19.7270   44.3890 C.3    94  GLU94       0.1699
     62  C         -4.1820   20.0690   44.3670 C.2    94  GLU94       0.2592
     63  O         -3.2890   19.2730   44.6260 O.2    94  GLU94      -0.2718
     64  CB        -6.3930   20.2310   43.1310 C.3    94  GLU94       0.0402
     65  CG        -5.9670   19.4280   41.9010 C.3    94  GLU94       0.1161
     66  CD        -6.1730   20.2500   40.6370 C.2    94  GLU94       0.3649
     67  OE1       -6.9150   21.2450   40.6900 O.co2  94  GLU94      -0.2457
     68  OE2       -5.5750   19.8920   39.6070 O.co2  94  GLU94      -0.2457
     69  N         -3.8790   21.3060   43.9960 N.am   95  ASN95      -0.1960
     70  CA        -2.4740   21.5910   43.6330 C.3    95  ASN95       0.1819
     71  C         -1.7510   22.7070   44.3960 C.2    95  ASN95       0.2621
     72  O         -0.7140   23.1930   43.9570 O.2    95  ASN95      -0.2715
     73  CB        -2.3750   21.8750   42.1110 C.3    95  ASN95       0.1195
     74  CG        -3.3530   22.9580   41.7420 C.2    95  ASN95       0.2630
     75  OD1       -4.1510   23.4210   42.5350 O.2    95  ASN95      -0.2716
     76  ND2       -3.2930   23.3900   40.5220 N.am   95  ASN95      -0.0877
     77  N         -2.3480   23.1430   45.5280 N.am   96  LEU96      -0.1977
     78  CA        -1.8490   24.3230   46.2970 C.3    96  LEU96       0.1596
     79  C         -1.8510   25.6350   45.5190 C.2    96  LEU96       0.2287
     80  O         -1.0360   26.5170   45.6950 O.2    96  LEU96      -0.2864
     81  CB        -0.4360   24.1630   46.9460 C.3    96  LEU96       0.0297
     82  CG        -0.2660   23.0480   47.9880 C.3    96  LEU96       0.0022
     83  CD1        1.1250   23.0500   48.6280 C.3    96  LEU96       0.0001
     84  CD2       -1.3520   23.1300   49.0430 C.3    96  LEU96       0.0001
     85  N         12.1520   15.2670   54.2400 N.3   148  TRP148     -0.1241
     86  CA        11.0440   15.1490   53.2790 C.3   148  TRP148      0.1605
     87  C         11.2050   14.0040   52.2490 C.2   148  TRP148      0.2264
     88  O         11.3340   14.2060   51.0600 O.2   148  TRP148     -0.2867
     89  CB        10.9870   16.5310   52.6070 C.3   148  TRP148      0.0550
     90  CG         9.7290   16.7780   51.8000 C.ar  148  TRP148      0.0003
     91  CD1        8.5550   15.9860   51.7420 C.ar  148  TRP148      0.0946
     92  CD2        9.4930   17.8680   50.9420 C.ar  148  TRP148      0.0152
     93  NE1        7.6110   16.5160   50.9040 N.ar  148  TRP148     -0.2442
     94  CE2        8.1360   17.6770   50.3830 C.ar  148  TRP148      0.0810
     95  CE3       10.2310   18.9770   50.5770 C.ar  148  TRP148      0.0012
     96  CZ2        7.6260   18.6190   49.5060 C.ar  148  TRP148      0.0191
     97  CZ3        9.6570   19.8690   49.6940 C.ar  148  TRP148      0.0001
     98  CH2        8.3890   19.7150   49.1640 C.ar  148  TRP148      0.0015
     99  N          1.6890   17.2430   38.4430 N.3   179  ILE179     -0.1245
    100  CA         0.7460   18.2280   39.0490 C.3   179  ILE179      0.1561
    101  C          0.3320   19.2820   38.0520 C.2   179  ILE179      0.2260
    102  O          1.1420   19.7960   37.3110 O.2   179  ILE179     -0.2867
    103  CB         1.3880   18.9490   40.2900 C.3   179  ILE179      0.0252
    104  CG1        1.7760   17.9370   41.3580 C.3   179  ILE179      0.0019
    105  CG2        0.4540   19.9470   40.9570 C.3   179  ILE179      0.0019
    106  CD1        0.5190   17.2920   41.9360 C.3   179  ILE179      0.0001
    107  N         18.1850   23.9730   46.6770 N.3   199  ASP199     -0.1225
    108  CA        16.7050   24.0020   46.7400 C.3   199  ASP199      0.1805
    109  C         16.1970   24.4010   48.1300 C.2   199  ASP199      0.2598
    110  O         16.8750   24.3180   49.1410 O.2   199  ASP199     -0.2718
    111  CB        16.1210   22.5940   46.3380 C.3   199  ASP199      0.1424
    112  CG        14.6160   22.4780   46.0160 C.2   199  ASP199      0.3668
    113  OD1       13.9350   23.4740   45.7770 O.co2 199  ASP199     -0.2456
    114  OD2       14.1080   21.3580   46.0050 O.co2 199  ASP199     -0.2456
    115  N         14.9340   24.7770   48.1680 N.am  200  ALA200     -0.1966
    116  CA        14.2310   24.6810   49.4280 C.3   200  ALA200      0.1728
    117  C         13.8850   23.2540   49.8620 C.2   200  ALA200      0.2616
    118  O         13.9330   22.2960   49.1220 O.2   200  ALA200     -0.2715
    119  CB        12.9600   25.5120   49.3440 C.3   200  ALA200      0.0334
    120  N         13.5370   23.1370   51.1230 N.am  201  CYS201     -0.1954
    121  CA        13.2590   21.8260   51.7480 C.3   201  CYS201      0.1843
    122  C         12.3450   21.9990   52.9520 C.2   201  CYS201      0.2625
    123  O         11.9220   23.1150   53.2340 O.2   201  CYS201     -0.2714
    124  CB        14.5540   21.1360   52.1890 C.3   201  CYS201      0.0997
    125  SG        14.3280   19.3460   52.2790 S.3   201  CYS201     -0.0797
    126  N         12.0480   20.9210   53.6620 N.am  202  GLU202     -0.1963
    127  CA        11.0780   21.0770   54.7580 C.3   202  GLU202      0.1733
    128  C         11.3720   22.1700   55.8110 C.2   202  GLU202      0.2617
    129  O         12.4890   22.3070   56.2780 O.2   202  GLU202     -0.2715
    130  CB        11.0120   19.7100   55.4440 C.3   202  GLU202      0.0429
    131  CG         9.6300   19.2600   55.9370 C.3   202  GLU202      0.1163
    132  CD         8.9550   20.2530   56.8950 C.2   202  GLU202      0.3649
    133  OE1        9.5060   20.5140   57.9820 O.co2 202  GLU202     -0.2457
    134  OE2        7.8700   20.7600   56.5490 O.co2 202  GLU202     -0.2457
    135  N         10.3900   22.9460   56.2210 N.am  203  GLY203     -0.1940
    136  CA        10.7150   24.0140   57.1670 C.3   203  GLY203      0.2014
    137  C         11.0230   25.3280   56.4750 C.2   203  GLY203      0.2639
    138  O         10.9740   26.3820   57.0690 O.2   203  GLY203     -0.2714
    139  N         11.3370   25.2510   55.1710 N.am  204  ASP204     -0.1957
    140  CA        11.4800   26.4530   54.3350 C.3   204  ASP204      0.1840
    141  C         10.2210   27.0450   53.7520 C.2   204  ASP204      0.2625
    142  O         10.2010   28.2230   53.4400 O.2   204  ASP204     -0.2714
    143  CB        12.3890   26.2180   53.1450 C.3   204  ASP204      0.1450
    144  CG        13.8110   25.9720   53.6240 C.2   204  ASP204      0.3671
    145  OD1       14.2450   26.6610   54.5570 O.co2 204  ASP204     -0.2456
    146  OD2       14.4960   25.1070   53.0810 O.co2 204  ASP204     -0.2456
    147  N          9.1590   26.2360   53.6130 N.am  205  SER205     -0.1896
    148  CA         7.8660   26.6720   53.0480 C.3   205  SER205      0.2236
    149  C          7.4010   27.9310   53.6850 C.2   205  SER205      0.2368
    150  O          7.6740   28.2020   54.8470 O.2   205  SER205     -0.2859
    151  CB         6.7560   25.6340   53.1950 C.2   205  SER205      0.2368
    152  OG         6.9990   24.4780   53.4720 O.2   205  SER205     -0.2859
    153  N          7.8220   30.4140   48.9820 N.3   225  VAL225     -0.1231
    154  CA         8.0780   28.9780   48.8560 C.3   225  VAL225      0.1692
    155  C          6.8350   28.1170   49.0830 C.2   225  VAL225      0.2593
    156  O          6.1560   28.1770   50.1110 O.2   225  VAL225     -0.2718
    157  CB         9.2190   28.5410   49.8200 C.3   225  VAL225      0.0266
    158  CG1        9.6460   27.0660   49.5890 C.3   225  VAL225      0.0020
    159  CG2       10.4590   29.4040   49.7280 C.3   225  VAL225      0.0020
    160  N          6.5160   27.3180   48.0610 N.am  226  SER226     -0.1938
    161  CA         5.2100   26.6620   48.2100 C.3   226  SER226      0.2055
    162  C          5.2560   25.1700   48.2380 C.2   226  SER226      0.2643
    163  O          4.7780   24.5590   49.1560 O.2   226  SER226     -0.2714
    164  CB         4.2830   27.1140   47.0770 C.3   226  SER226      0.2130
    165  OG         2.9940   26.5080   47.0960 O.3   226  SER226     -0.2179
    166  N          5.8080   24.5760   47.1850 N.am  227  TRP227     -0.1959
    167  CA         5.8920   23.1000   47.1110 C.3   227  TRP227      0.1771
    168  C          6.9850   22.5670   46.1660 C.2   227  TRP227      0.2620
    169  O          7.5950   23.2460   45.3520 O.2   227  TRP227     -0.2715
    170  CB         4.4730   22.4620   46.8350 C.3   227  TRP227      0.0590
    171  CG         3.9380   22.7760   45.4340 C.ar  227  TRP227      0.0006
    172  CD1        3.1700   23.8930   45.0620 C.ar  227  TRP227      0.0946
    173  CD2        4.1020   22.0190   44.2410 C.ar  227  TRP227      0.0152
    174  NE1        2.8480   23.8970   43.7420 N.ar  227  TRP227     -0.2442
    175  CE2        3.3920   22.7610   43.1840 C.ar  227  TRP227      0.0810
    176  CE3        4.7260   20.8110   43.9200 C.ar  227  TRP227      0.0012
    177  CZ2        3.3780   22.2180   41.8990 C.ar  227  TRP227      0.0191
    178  CZ3        4.6920   20.3140   42.6280 C.ar  227  TRP227      0.0001
    179  CH2        4.0200   21.0170   41.6270 C.ar  227  TRP227      0.0015
    180  N          7.3010   21.3060   46.3170 N.am  228  GLY228     -0.1940
    181  CA         8.3030   20.7430   45.4130 C.3   228  GLY228      0.2014
    182  C          8.2400   19.2400   45.5600 C.2   228  GLY228      0.2639
    183  O          7.6080   18.7150   46.4540 O.2   228  GLY228     -0.2714
    184  N          8.8580   18.5220   44.6710 N.am  229  GLU229     -0.1963
    185  CA         8.7770   17.0720   44.9180 C.3   229  GLU229      0.1733
    186  C         10.1190   16.5510   45.3780 C.2   229  GLU229      0.2616
    187  O         11.0970   16.4030   44.6580 O.2   229  GLU229     -0.2715
    188  CB         8.2400   16.3760   43.6580 C.3   229  GLU229      0.0429
    189  CG         6.7910   16.8310   43.4260 C.3   229  GLU229      0.1163
    190  CD         6.2610   16.5340   42.0210 C.2   229  GLU229      0.3649
    191  OE1        6.9500   16.8110   41.0350 O.co2 229  GLU229     -0.2457
    192  OE2        5.1270   16.0530   41.9330 O.co2 229  GLU229     -0.2457
    193  N         10.1540   16.3810   46.6800 N.am  230  GLY230     -0.1955
    194  CA        11.4900   16.1940   47.2440 C.3   230  GLY230      0.1869
    195  C         12.2520   17.4690   47.5020 C.2   230  GLY230      0.2309
    196  O         11.7220   18.5700   47.5150 O.2   230  GLY230     -0.2863
    197  N         11.8220   20.5760   40.2600 N.3   237  TYR237     -0.1227
    198  CA        11.9760   21.9920   40.5750 C.3   237  TYR237      0.1736
    199  C         11.1650   22.4070   41.7890 C.2   237  TYR237      0.2596
    200  O         10.1820   21.7960   42.1780 O.2   237  TYR237     -0.2718
    201  CB        11.5510   22.8730   39.3730 C.3   237  TYR237      0.0548
    202  CG        12.3600   22.5150   38.1510 C.ar  237  TYR237     -0.0200
    203  CD1       13.6420   23.0090   38.0990 C.ar  237  TYR237     -0.0009
    204  CD2       11.8670   21.6440   37.1700 C.ar  237  TYR237     -0.0009
    205  CE1       14.4670   22.6090   37.0770 C.ar  237  TYR237      0.0417
    206  CE2       12.7030   21.2420   36.1430 C.ar  237  TYR237      0.0417
    207  CZ        14.0020   21.7200   36.1260 C.ar  237  TYR237      0.1957
    208  OH        14.9340   21.2640   35.2320 O.3   237  TYR237     -0.2866
    209  N         11.6060   23.5320   42.3820 N.am  238  GLY238     -0.1942
    210  CA        10.7570   24.2050   43.3640 C.3   238  GLY238      0.2014
    211  C          9.6870   25.0980   42.7530 C.2   238  GLY238      0.2639
    212  O          9.9090   25.8470   41.8230 O.2   238  GLY238     -0.2714
    213  N          8.5250   24.9900   43.3420 N.am  239  PHE239     -0.1959
    214  CA         7.4310   25.8440   42.9300 C.3   239  PHE239      0.1771
    215  C          7.0740   26.8770   43.9820 C.2   239  PHE239      0.2619
    216  O          7.1080   26.6900   45.2000 O.2   239  PHE239     -0.2715
    217  CB         6.1880   24.9710   42.6250 C.3   239  PHE239      0.0574
    218  CG         6.3930   24.1040   41.3750 C.ar  239  PHE239     -0.0200
    219  CD1        7.1680   22.9470   41.3930 C.ar  239  PHE239     -0.0042
    220  CD2        5.8100   24.4790   40.1500 C.ar  239  PHE239     -0.0042
    221  CE1        7.3610   22.1890   40.2250 C.ar  239  PHE239     -0.0003
    222  CE2        6.0060   23.7120   38.9940 C.ar  239  PHE239     -0.0003
    223  CZ         6.7900   22.5590   39.0180 C.ar  239  PHE239     -0.0000
    224  N          6.7720   28.0280   43.4420 N.am  240  TYR240     -0.1974
    225  CA         6.5310   29.1840   44.2910 C.3   240  TYR240      0.1639
    226  C          5.2460   29.8620   43.9630 C.2   240  TYR240      0.2290
    227  O          4.8560   29.9870   42.8130 O.2   240  TYR240     -0.2864
    228  CB         7.6420   30.2200   44.0500 C.3   240  TYR240      0.0560
    229  CG         9.0130   29.6620   44.3750 C.ar  240  TYR240     -0.0198
    230  CD1        9.7090   28.8300   43.4950 C.ar  240  TYR240     -0.0009
    231  CD2        9.5520   29.9500   45.6260 C.ar  240  TYR240     -0.0009
    232  CE1       10.9250   28.2640   43.8520 C.ar  240  TYR240      0.0417
    233  CE2       10.7650   29.3810   45.9640 C.ar  240  TYR240      0.0417
    234  CZ        11.4330   28.5350   45.1110 C.ar  240  TYR240      0.1957
    235  OH        12.5580   27.8990   45.5930 O.3   240  TYR240     -0.2866
@<TRIPOS>BOND
     1   208   207    1
     2   207   206   ar
     3   207   205   ar
     4   206   204   ar
     5   205   203   ar
     6   204   202   ar
     7   102   101    2
     8   101   100    1
     9   203   202   ar
    10   202   201    1
    11    99   100    1
    12   222   223   ar
    13   222   220   ar
    14   223   221   ar
    15   100   103    1
    16   201   198    1
    17    68    66   ar
    18   220   218   ar
    19   221   219   ar
    20   197   198    1
    21   103   105    1
    22   103   104    1
    23    76    74   am
    24   198   199    1
    25    66    67   ar
    26    66    65    1
    27   191   190   ar
    28   104   106    1
    29   218   219   ar
    30   218   217    1
    31   179   177   ar
    32   179   178   ar
    33    74    73    1
    34    74    75    2
    35   199   200    2
    36   199   209   am
    37   212   211    2
    38   177   175   ar
    39    65    64    1
    40   192   190   ar
    41   190   189    1
    42    73    70    1
    43   209   210    1
    44   217   214    1
    45   178   176   ar
    46   211   213   am
    47   211   210    1
    48   227   226    2
    49   214   213    1
    50   214   215    1
    51    64    61    1
    52   175   174   ar
    53   175   173   ar
    54   189   188    1
    55   224   215   am
    56   224   225    1
    57   230   232   ar
    58   230   229   ar
    59    70    69    1
    60    70    71    1
    61   188   185    1
    62   174   172   ar
    63   232   234   ar
    64   176   173   ar
    65    72    71    2
    66   226   225    1
    67   215   216    2
    68    69    62   am
    69   228   225    1
    70   228   229    1
    71   173   171   ar
    72    62    61    1
    73    62    63    2
    74   229   231   ar
    75    61    60    1
    76    71    77   am
    77   187   186    2
    78   184   185    1
    79   184   182   am
    80   185   186    1
    81   172   171   ar
    82   234   235    1
    83   234   233   ar
    84   169   168    2
    85   186   193   am
    86   181   182    1
    87   181   180    1
    88   171   170    1
    89    79    80    2
    90    79    78    1
    91    77    78    1
    92   182   183    2
    93   231   233   ar
    94   113   112   ar
    95   114   112   ar
    96   112   111    1
    97   168   180   am
    98   168   167    1
    99    78    81    1
   100   111   108    1
   101   107   108    1
   102   193   194    1
   103   108   109    1
   104   170   167    1
   105    81    82    1
   106   164   165    1
   107   164   161    1
   108   167   166    1
   109   166   162   am
   110   194   195    1
   111   195   196    2
   112    82    83    1
   113    82    84    1
   114   160   161    1
   115   160   155   am
   116   109   115   am
   117   109   110    2
   118   115   116    1
   119   161   162    1
   120   162   163    2
   121   154   153    1
   122   154   155    1
   123   154   157    1
   124   155   156    2
   125   118   117    2
   126    98    96   ar
   127    98    97   ar
   128   119   116    1
   129   116   117    1
   130    96    94   ar
   131   158   157    1
   132    97    95   ar
   133   159   157    1
   134   117   120   am
   135    94    93   ar
   136    94    92   ar
   137    95    92   ar
   138    36    35    1
   139    93    91   ar
   140    92    90   ar
   141    88    87    2
   142   120   121    1
   143    21    23   ar
   144    21    20   ar
   145    33    35   ar
   146    33    31   ar
   147    23    24   ar
   148    91    90   ar
   149   121   124    1
   150   121   122    1
   151    90    89    1
   152    35    34   ar
   153   124   125    1
   154    87    86    1
   155    20    19    1
   156    20    22   ar
   157    19    16    1
   158    89    86    1
   159    24    22   ar
   160    31    30   ar
   161   122   123    2
   162   122   126   am
   163   148   151    1
   164   148   147    1
   165   148   149    1
   166   146   144   ar
   167    34    32   ar
   168   143   144    1
   169   143   140    1
   170    15    16    1
   171   151   152    2
   172    86    85    1
   173   142   141    2
   174    48    50   ar
   175    48    46   ar
   176   147   141   am
   177   144   145   ar
   178    16    17    1
   179   126   127    1
   180   149   150    2
   181   141   140    1
   182    50    49   ar
   183    30    32   ar
   184    30    29    1
   185    45    46   ar
   186    45    43   ar
   187    46    44   ar
   188   140   139    1
   189   127   130    1
   190   127   128    1
   191    49    47   ar
   192    17    18    2
   193   139   137   am
   194    29    26    1
   195    43    42   ar
   196    26    27    1
   197    26    25    1
   198    44    47   ar
   199    44    42   ar
   200   130   131    1
   201   128   135   am
   202   128   129    2
   203    27    28    2
   204   131   132    1
   205    42    41    1
   206   135   136    1
   207    37    38    1
   208   137   138    2
   209   137   136    1
   210   134   132   ar
   211   132   133   ar
   212    14    13    1
   213    41    38    1
   214    38    39    1
   215    59    58    1
   216    13    10    1
   217    10    11    1
   218    10     9    1
   219    11    12    2
   220    57    58    1
   221    57    56    1
   222    39    40    2
   223    54    53    2
   224     4     3    2
   225    55    56    1
   226    55    52    1
   227    51    52    1
   228     9     3   am
   229    53    52    1
   230     3     2    1
   231     2     5    1
   232     2     1    1
   233     5     6    1
   234     6     7    1
   235     6     8    1
