@<TRIPOS>MOLECULE
tmp/1qj3B02.pdb
 116 114 0 0 0
SMALL
GASTEIGER

@<TRIPOS>ATOM
      1  N         -4.0560   -2.5460   35.2660 N.3    17  TYR17      -0.1241
      2  CA        -4.7450   -3.4880   36.1380 C.3    17  TYR17       0.1605
      3  C         -6.2640   -3.3840   36.1040 C.2    17  TYR17       0.2264
      4  O         -6.9150   -3.3330   37.1530 O.2    17  TYR17      -0.2867
      5  CB        -4.1630   -3.3050   37.5590 C.3    17  TYR17       0.0534
      6  CG        -2.6500   -3.3070   37.6960 C.ar   17  TYR17      -0.0201
      7  CD1       -1.9600   -4.4890   37.4820 C.ar   17  TYR17      -0.0009
      8  CD2       -1.9050   -2.1830   38.0410 C.ar   17  TYR17      -0.0009
      9  CE1       -0.5890   -4.5600   37.5960 C.ar   17  TYR17       0.0417
     10  CE2       -0.5290   -2.2430   38.1710 C.ar   17  TYR17       0.0417
     11  CZ         0.1270   -3.4310   37.9420 C.ar   17  TYR17       0.1957
     12  OH         1.4930   -3.5200   38.0540 O.3    17  TYR17      -0.2866
     13  N          1.4020    7.2410   41.9170 N.3    52  TRP52      -0.1227
     14  CA         2.0180    5.9740   42.2450 C.3    52  TRP52       0.1737
     15  C          3.4510    6.2270   42.6810 C.2    52  TRP52       0.2595
     16  O          4.4160    5.5540   42.4240 O.2    52  TRP52      -0.2718
     17  CB         2.0080    4.9180   41.1890 C.3    52  TRP52       0.0564
     18  CG         0.7980    4.0420   41.2080 C.ar   52  TRP52       0.0003
     19  CD1        0.1490    3.5070   42.2800 C.ar   52  TRP52       0.0946
     20  CD2        0.1030    3.5780   40.0460 C.ar   52  TRP52       0.0152
     21  NE1       -0.9210    2.7510   41.8580 N.ar   52  TRP52      -0.2442
     22  CE2       -0.9700    2.7730   40.4930 C.ar   52  TRP52       0.0810
     23  CE3        0.2860    3.7830   38.6650 C.ar   52  TRP52       0.0012
     24  CZ2       -1.8510    2.1700   39.6090 C.ar   52  TRP52       0.0191
     25  CZ3       -0.5980    3.1820   37.7910 C.ar   52  TRP52       0.0001
     26  CH2       -1.6510    2.3800   38.2620 C.ar   52  TRP52       0.0015
     27  N          3.4660    7.0460   43.7380 N.am   53  TRP53      -0.1976
     28  CA         4.5500    7.3430   44.6330 C.3    53  TRP53       0.1640
     29  C          5.8360    7.8840   44.0330 C.2    53  TRP53       0.2290
     30  O          6.8340    8.0480   44.7510 O.2    53  TRP53      -0.2864
     31  CB         4.7500    6.0700   45.4820 C.3    53  TRP53       0.0576
     32  CG         3.6620    5.0300   45.6120 C.ar   53  TRP53       0.0006
     33  CD1        2.2920    5.1150   45.6960 C.ar   53  TRP53       0.0946
     34  CD2        3.9430    3.6240   45.6130 C.ar   53  TRP53       0.0152
     35  NE1        1.7340    3.8610   45.7520 N.ar   53  TRP53      -0.2442
     36  CE2        2.7310    2.9210   45.7170 C.ar   53  TRP53       0.0810
     37  CE3        5.1360    2.8980   45.5540 C.ar   53  TRP53       0.0012
     38  CZ2        2.6770    1.5300   45.7650 C.ar   53  TRP53       0.0191
     39  CZ3        5.0780    1.5270   45.6020 C.ar   53  TRP53       0.0001
     40  CH2        3.8640    0.8530   45.7040 C.ar   53  TRP53       0.0015
     41  N          6.4080   -7.7950   46.1290 N.3   144  TYR144     -0.1241
     42  CA         6.0340   -7.3100   44.8200 C.3   144  TYR144      0.1605
     43  C          7.2940   -6.7380   44.1510 C.2   144  TYR144      0.2264
     44  O          7.9870   -5.8980   44.7280 O.2   144  TYR144     -0.2867
     45  CB         4.9720   -6.2050   44.8620 C.3   144  TYR144      0.0534
     46  CG         4.6870   -5.7060   43.4570 C.ar  144  TYR144     -0.0201
     47  CD1        3.9060   -6.4780   42.6020 C.ar  144  TYR144     -0.0009
     48  CD2        5.2060   -4.5040   42.9980 C.ar  144  TYR144     -0.0009
     49  CE1        3.6320   -6.0590   41.3170 C.ar  144  TYR144      0.0417
     50  CE2        4.9330   -4.0760   41.7120 C.ar  144  TYR144      0.0417
     51  CZ         4.1530   -4.8530   40.8760 C.ar  144  TYR144      0.1957
     52  OH         3.8870   -4.4310   39.6040 O.3   144  TYR144     -0.2866
     53  N          5.9640   -6.3490   36.9390 N.3   147  ASP147     -0.1239
     54  CA         5.1190   -7.2330   36.1390 C.3   147  ASP147      0.1674
     55  C          5.7590   -8.0090   34.9940 C.2   147  ASP147      0.2266
     56  O          5.0840   -8.9180   34.4890 O.2   147  ASP147     -0.2867
     57  CB         3.9270   -6.4640   35.5960 C.3   147  ASP147      0.1410
     58  CG         3.2530   -5.5550   36.5880 C.2   147  ASP147      0.3668
     59  OD1        3.1160   -5.8880   37.7870 O.co2 147  ASP147     -0.2456
     60  OD2        2.8260   -4.4570   36.1840 O.co2 147  ASP147     -0.2456
     61  N          3.1950   -2.9590   47.3860 N.3   206  ALA206     -0.1245
     62  CA         2.0390   -3.4870   46.6720 C.3   206  ALA206      0.1562
     63  C          1.5270   -4.8110   47.2120 C.2   206  ALA206      0.2260
     64  O          0.3370   -5.1250   47.1930 O.2   206  ALA206     -0.2867
     65  CB         2.2850   -3.6050   45.1770 C.3   206  ALA206      0.0290
     66  N         10.9460    4.6300   40.3450 N.3   263  LYS263     -0.1245
     67  CA         9.8400    5.5150   40.7320 C.3   263  LYS263      0.1561
     68  C         10.1850    6.9300   41.0810 C.2   263  LYS263      0.2260
     69  O         10.0300    7.8210   40.2020 O.2   263  LYS263     -0.2867
     70  CB         8.9960    4.8370   41.8190 C.3   263  LYS263      0.0271
     71  CG         7.9730    3.7950   41.3030 C.3   263  LYS263      0.0035
     72  CD         7.0880    3.2500   42.4100 C.3   263  LYS263      0.0206
     73  CE         6.0480    2.2020   42.0160 C.3   263  LYS263      0.1093
     74  NZ         6.3640    0.7620   42.2120 N.3   263  LYS263     -0.1314
     75  N        -13.6160    0.0800   44.5240 N.3   363  MET363     -0.1245
     76  CA       -12.8370    1.1600   43.9420 C.3   363  MET363      0.1570
     77  C        -13.6320    2.2030   43.1760 C.2   363  MET363      0.2261
     78  O        -13.4170    3.4070   43.3460 O.2   363  MET363     -0.2867
     79  CB       -11.8870    0.4990   42.9440 C.3   363  MET363      0.0387
     80  CG       -11.0550   -0.5980   43.6000 C.3   363  MET363      0.0595
     81  SD        -9.4200    0.0640   44.0040 S.3   363  MET363     -0.1393
     82  CE        -8.9010    0.5490   42.3300 C.3   363  MET363      0.0692
     83  N         -6.1410    6.4020   45.4760 N.3   378  ARG378     -0.1245
     84  CA        -6.5250    5.1730   44.8070 C.3   378  ARG378      0.1563
     85  C         -6.3490    4.0060   45.7660 C.2   378  ARG378      0.2260
     86  O         -5.2760    3.4370   45.9510 O.2   378  ARG378     -0.2867
     87  CB        -5.7540    4.9550   43.5100 C.3   378  ARG378      0.0307
     88  CG        -6.1390    3.6730   42.7700 C.3   378  ARG378      0.0489
     89  CD        -4.9390    3.2310   41.9620 C.3   378  ARG378      0.2205
     90  NE        -4.9620    1.8930   41.4260 N.pl3 378  ARG378     -0.0865
     91  CZ        -5.5750    1.4910   40.3260 C.cat 378  ARG378      0.5346
     92  NH1       -6.2620    2.3490   39.5900 N.pl3 378  ARG378      0.1354
     93  NH2       -5.5240    0.2270   39.9280 N.pl3 378  ARG378      0.1354
     94  N         -7.0800    0.1090   47.1780 N.3   380  PHE380     -0.1241
     95  CA        -6.7090   -1.1130   46.4580 C.3   380  PHE380      0.1605
     96  C         -6.6640   -2.2780   47.4280 C.2   380  PHE380      0.2264
     97  O         -5.9940   -2.3160   48.4630 O.2   380  PHE380     -0.2867
     98  CB        -5.4480   -0.7500   45.6880 C.3   380  PHE380      0.0534
     99  CG        -4.3120   -1.6660   45.9400 C.ar  380  PHE380     -0.0203
    100  CD1       -4.3360   -2.9210   45.3680 C.ar  380  PHE380     -0.0042
    101  CD2       -3.2550   -1.2760   46.7480 C.ar  380  PHE380     -0.0042
    102  CE1       -3.2930   -3.7970   45.6030 C.ar  380  PHE380     -0.0003
    103  CE2       -2.2100   -2.1570   46.9810 C.ar  380  PHE380     -0.0003
    104  CZ        -2.2370   -3.4100   46.4070 C.ar  380  PHE380     -0.0000
    105  N         -4.4780    3.7310   51.4600 N.3   385  TYR385     -0.1241
    106  CA        -3.2200    4.3030   51.9280 C.3   385  TYR385      0.1605
    107  C         -2.9410    5.6490   51.2800 C.2   385  TYR385      0.2264
    108  O         -3.4670    6.0310   50.2410 O.2   385  TYR385     -0.2867
    109  CB        -2.1480    3.2350   51.6750 C.3   385  TYR385      0.0534
    110  CG        -1.8830    3.0200   50.1970 C.ar  385  TYR385     -0.0201
    111  CD1       -2.6320    2.1490   49.4100 C.ar  385  TYR385     -0.0009
    112  CD2       -0.8450    3.7300   49.6050 C.ar  385  TYR385     -0.0009
    113  CE1       -2.3580    1.9830   48.0710 C.ar  385  TYR385      0.0417
    114  CE2       -0.5600    3.5660   48.2610 C.ar  385  TYR385      0.0417
    115  CZ        -1.3250    2.6980   47.5010 C.ar  385  TYR385      0.1957
    116  OH        -1.0060    2.5810   46.1730 O.3   385  TYR385     -0.2866
@<TRIPOS>BOND
     1    56    55    2
     2    55    54    1
     3     1     2    1
     4    57    54    1
     5    57    58    1
     6     3     2    1
     7     3     4    2
     8     2     5    1
     9    54    53    1
    10    60    58   ar
    11    58    59   ar
    12     7     9   ar
    13     7     6   ar
    14     5     6    1
    15     9    11   ar
    16     6     8   ar
    17    25    26   ar
    18    25    23   ar
    19    11    12    1
    20    11    10   ar
    21     8    10   ar
    22    26    24   ar
    23    23    20   ar
    24    92    91    1
    25    52    51    1
    26    24    22   ar
    27    93    91    1
    28    20    22   ar
    29    20    18   ar
    30    69    68    2
    31    91    90    2
    32    66    67    1
    33    22    21   ar
    34    67    68    1
    35    67    70    1
    36    51    49   ar
    37    51    50   ar
    38    17    18    1
    39    17    14    1
    40    18    19   ar
    41    71    70    1
    42    71    72    1
    43    49    47   ar
    44    90    89    1
    45    50    48   ar
    46    21    19   ar
    47    13    14    1
    48    89    88    1
    49    73    74    1
    50    73    72    1
    51    14    15    1
    52    82    81    1
    53    16    15    2
    54    47    46   ar
    55    15    27   am
    56    88    87    1
    57    79    80    1
    58    79    76    1
    59    48    46   ar
    60    77    78    2
    61    77    76    1
    62    46    45    1
    63    87    84    1
    64    80    81    1
    65    27    28    1
    66    76    75    1
    67    29    28    1
    68    29    30    2
    69    43    44    2
    70    43    42    1
    71    28    31    1
    72    84    83    1
    73    84    85    1
    74    42    45    1
    75    42    41    1
    76    65    62    1
    77   100   102   ar
    78   100    99   ar
    79    31    32    1
    80    37    39   ar
    81    37    34   ar
    82    39    40   ar
    83   102   104   ar
    84    32    34   ar
    85    32    33   ar
    86    34    36   ar
    87    98    99    1
    88    98    95    1
    89    33    35   ar
    90    40    38   ar
    91    36    35   ar
    92    36    38   ar
    93    85    86    2
    94    99   101   ar
    95   116   115    1
    96   104   103   ar
    97    95    94    1
    98    95    96    1
    99    62    63    1
   100    62    61    1
   101   101   103   ar
   102    64    63    2
   103    96    97    2
   104   115   113   ar
   105   115   114   ar
   106   113   111   ar
   107   114   112   ar
   108   111   110   ar
   109   112   110   ar
   110   110   109    1
   111   108   107    2
   112   107   106    1
   113   105   106    1
   114   109   106    1
