@<TRIPOS>MOLECULE
tmp/1qj5B01.pdb
 119 114 0 0 0
SMALL
GASTEIGER

@<TRIPOS>ATOM
      1  N          4.3330    6.3670   44.6100 N.3    53  TRP53      -0.1241
      2  CA         5.5970    6.5340   45.2570 C.3    53  TRP53       0.1605
      3  C          6.5270    7.5770   44.6570 C.2    53  TRP53       0.2264
      4  O          7.2280    8.3420   45.3510 O.2    53  TRP53      -0.2867
      5  CB         6.4110    5.2200   45.3360 C.3    53  TRP53       0.0550
      6  CG         5.7640    3.9640   45.8130 C.ar   53  TRP53       0.0003
      7  CD1        4.9870    3.0950   45.0610 C.ar   53  TRP53       0.0946
      8  CD2        5.7870    3.3900   47.1280 C.ar   53  TRP53       0.0152
      9  NE1        4.5580    2.0330   45.8120 N.ar   53  TRP53      -0.2442
     10  CE2        5.0330    2.2060   47.0980 C.ar   53  TRP53       0.0810
     11  CE3        6.3860    3.7790   48.3300 C.ar   53  TRP53       0.0012
     12  CZ2        4.8610    1.3980   48.2190 C.ar   53  TRP53       0.0191
     13  CZ3        6.2260    2.9750   49.4530 C.ar   53  TRP53       0.0001
     14  CH2        5.4620    1.7930   49.3800 C.ar   53  TRP53       0.0015
     15  N         12.9910    0.8100   33.3780 N.3   111  SER111     -0.1202
     16  CA        11.8600    0.7210   34.3180 C.3   111  SER111      0.2020
     17  C         12.2130   -0.2420   35.4430 C.2   111  SER111      0.2619
     18  O         13.2430   -0.9210   35.3580 O.2   111  SER111     -0.2717
     19  CB        10.5880    0.2000   33.6340 C.3   111  SER111      0.2103
     20  OG        10.7620   -1.1750   33.2370 O.3   111  SER111     -0.2182
     21  N         11.4260   -0.2170   36.5010 N.am  112  GLY112     -0.1942
     22  CA        11.6590   -1.0300   37.6790 C.3   112  GLY112      0.2014
     23  C         11.7110   -2.5050   37.3390 C.2   112  GLY112      0.2639
     24  O         12.5760   -3.2290   37.7720 O.2   112  GLY112     -0.2714
     25  N         10.7530   -3.0030   36.5470 N.am  113  SER113     -0.1949
     26  CA        10.6880   -4.3910   36.1730 C.3   113  SER113      0.1924
     27  C         11.9740   -4.7690   35.4190 C.2   113  SER113      0.2314
     28  O         12.4550   -5.8580   35.6510 O.2   113  SER113     -0.2863
     29  CB         9.5070   -4.8070   35.2910 C.3   113  SER113      0.2116
     30  OG         8.2710   -4.6370   35.9800 O.3   113  SER113     -0.2180
     31  N          6.4720   -8.3450   45.6070 N.3   144  TYR144     -0.1227
     32  CA         6.1190   -7.8240   44.2830 C.3   144  TYR144      0.1736
     33  C          7.3760   -7.2240   43.6560 C.2   144  TYR144      0.2595
     34  O          8.0250   -6.3850   44.3070 O.2   144  TYR144     -0.2718
     35  CB         5.0260   -6.7480   44.3190 C.3   144  TYR144      0.0548
     36  CG         4.8520   -6.1590   42.9170 C.ar  144  TYR144     -0.0200
     37  CD1        4.2490   -6.9690   41.9600 C.ar  144  TYR144     -0.0009
     38  CD2        5.2760   -4.8920   42.5580 C.ar  144  TYR144     -0.0009
     39  CE1        4.0680   -6.4980   40.6700 C.ar  144  TYR144      0.0417
     40  CE2        5.0870   -4.4060   41.2590 C.ar  144  TYR144      0.0417
     41  CZ         4.4790   -5.2250   40.3360 C.ar  144  TYR144      0.1957
     42  OH         4.2710   -4.7990   39.0320 O.3   144  TYR144     -0.2866
     43  N          7.7550   -7.7110   42.4510 N.am  145  HIS145     -0.1961
     44  CA         9.0040   -7.2530   41.8520 C.3   145  HIS145      0.1787
     45  C          8.8340   -6.7760   40.4280 C.2   145  HIS145      0.2621
     46  O          9.8240   -6.4510   39.7780 O.2   145  HIS145     -0.2715
     47  CB        10.0790   -8.3940   41.9030 C.3   145  HIS145      0.0785
     48  CG        10.4570   -8.6360   43.3530 C.ar  145  HIS145      0.0821
     49  ND1       10.1400   -9.7340   44.1170 N.ar  145  HIS145     -0.2267
     50  CD2       11.1330   -7.7910   44.1640 C.ar  145  HIS145      0.1154
     51  CE1       10.6390   -9.5530   45.3420 C.ar  145  HIS145      0.1986
     52  NE2       11.2280   -8.3830   45.3960 N.ar  145  HIS145     -0.2212
     53  N          7.6060   -6.6550   39.9470 N.am  146  GLY146     -0.1940
     54  CA         7.4350   -6.1910   38.5460 C.3   146  GLY146      0.2014
     55  C          6.5420   -7.1310   37.7470 C.2   146  GLY146      0.2638
     56  O          6.1790   -8.2250   38.1830 O.2   146  GLY146     -0.2714
     57  N          6.2510   -6.7480   36.5070 N.am  147  ASP147     -0.1971
     58  CA         5.3120   -7.4480   35.6300 C.3   147  ASP147      0.1709
     59  C          5.9340   -8.1640   34.4430 C.2   147  ASP147      0.2293
     60  O          5.2010   -8.8810   33.7340 O.2   147  ASP147     -0.2864
     61  CB         4.3360   -6.4120   35.0480 C.3   147  ASP147      0.1436
     62  CG         3.4350   -5.7200   36.0430 C.2   147  ASP147      0.3671
     63  OD1        3.2490   -6.2920   37.1420 O.co2 147  ASP147     -0.2456
     64  OD2        2.9110   -4.6130   35.7330 O.co2 147  ASP147     -0.2456
     65  N         11.9870   -7.2200   49.0910 N.3   211  GLU211     -0.1245
     66  CA        11.7310   -5.8000   49.2780 C.3   211  GLU211      0.1567
     67  C         12.0840   -5.5530   50.7570 C.2   211  GLU211      0.2260
     68  O         11.4950   -6.1730   51.6400 O.2   211  GLU211     -0.2867
     69  CB        10.2780   -5.4060   49.0530 C.3   211  GLU211      0.0388
     70  CG         9.7420   -5.6120   47.6460 C.3   211  GLU211      0.1160
     71  CD         8.2250   -5.6840   47.6320 C.2   211  GLU211      0.3649
     72  OE1        7.5700   -4.6320   47.4930 O.co2 211  GLU211     -0.2457
     73  OE2        7.7140   -6.8210   47.7460 O.co2 211  GLU211     -0.2457
     74  N          5.4920   -3.5980   49.3010 N.3   216  GLY216     -0.1210
     75  CA         4.5620   -2.6740   48.7100 C.3   216  GLY216      0.1956
     76  C          3.2890   -3.1990   48.1150 C.2   216  GLY216      0.2611
     77  O          2.2540   -3.3920   48.7680 O.2   216  GLY216     -0.2717
     78  N          3.3310   -3.4460   46.7930 N.am  217  ALA217     -0.1979
     79  CA         2.1550   -3.8880   46.0590 C.3   217  ALA217      0.1597
     80  C          1.5600   -5.1850   46.5360 C.2   217  ALA217      0.2287
     81  O          0.3700   -5.4420   46.3190 O.2   217  ALA217     -0.2864
     82  CB         2.5140   -3.9310   44.5660 C.3   217  ALA217      0.0319
     83  N         15.2640   -5.2320   46.4750 N.3   245  ASP245     -0.1239
     84  CA        14.4430   -4.4360   45.5290 C.3   245  ASP245      0.1674
     85  C         13.9200   -3.2100   46.2810 C.2   245  ASP245      0.2266
     86  O         12.9380   -3.2790   47.0090 O.2   245  ASP245     -0.2867
     87  CB        13.2820   -5.2860   45.0030 C.3   245  ASP245      0.1410
     88  CG        12.4340   -4.5220   43.9810 C.2   245  ASP245      0.3668
     89  OD1       12.5940   -3.2950   43.8470 O.co2 245  ASP245     -0.2456
     90  OD2       11.6060   -5.1790   43.3250 O.co2 245  ASP245     -0.2456
     91  N         12.9150   -0.4320   44.6580 N.3   247  ILE247     -0.1231
     92  CA        12.1910    0.3750   43.6690 C.3   247  ILE247      0.1692
     93  C         11.1240    1.2150   44.3440 C.2   247  ILE247      0.2591
     94  O         10.9050    2.3450   43.8910 O.2   247  ILE247     -0.2718
     95  CB        11.6860   -0.4930   42.4960 C.3   247  ILE247      0.0266
     96  CG1       12.9000   -0.9880   41.7080 C.3   247  ILE247      0.0019
     97  CG2       10.7300    0.2860   41.5890 C.3   247  ILE247      0.0020
     98  CD1       12.6420   -2.1820   40.8070 C.3   247  ILE247      0.0001
     99  N         10.4450    0.7370   45.3970 N.am  248  ALA248     -0.1980
    100  CA         9.4660    1.5550   46.0820 C.3   248  ALA248      0.1597
    101  C         10.0380    2.1760   47.3610 C.2   248  ALA248      0.2287
    102  O          9.5660    3.2520   47.7370 O.2   248  ALA248     -0.2864
    103  CB         8.2610    0.7070   46.5170 C.3   248  ALA248      0.0319
    104  N         11.1230    4.1290   40.3720 N.pl3 274  LYS274     -0.1249
    105  CA        10.1420    5.1260   40.7800 C.2   274  LYS274      0.1272
    106  C         10.4880    6.5400   40.9220 C.2   274  LYS274      0.2518
    107  O         10.9620    7.5650   40.5460 O.2   274  LYS274     -0.2816
    108  CB         8.9080    4.6200   41.4650 C.2   274  LYS274      0.0000
    109  CG         8.4840    3.1420   41.4990 C.3   274  LYS274      0.0550
    110  CD         7.1090    3.0760   42.1600 C.2   274  LYS274     -0.0020
    111  CE         6.3860    1.7540   42.3640 C.2   274  LYS274      0.1015
    112  NZ         6.9940    0.4900   42.0240 N.pl3 274  LYS274     -0.1270
    113  N         10.1800    7.7620   33.3240 N.3   282  THR282     -0.1218
    114  CA        10.7380    6.4850   33.7660 C.3   282  THR282      0.1862
    115  C         12.2520    6.4000   33.6510 C.2   282  THR282      0.2287
    116  O         12.8130    6.8720   32.6870 O.2   282  THR282     -0.2866
    117  CB        10.0620    5.3250   33.0020 C.3   282  THR282      0.1770
    118  OG1       10.3700    4.0990   33.6810 O.3   282  THR282     -0.2211
    119  CG2       10.5120    5.2240   31.5600 C.3   282  THR282      0.0375
@<TRIPOS>BOND
     1   119   117    1
     2   116   115    2
     3   117   118    1
     4   117   114    1
     5    20    19    1
     6   113   114    1
     7    15    16    1
     8    19    16    1
     9   115   114    1
    10    60    59    2
    11    16    17    1
    12    59    58    1
    13    61    58    1
    14    61    62    1
    15    29    30    1
    16    29    26    1
    17    18    17    2
    18    27    28    2
    19    27    26    1
    20    17    21   am
    21    58    57    1
    22    64    62   ar
    23    62    63   ar
    24    26    25    1
    25    21    22    1
    26    57    55   am
    27    25    23   am
    28    23    22    1
    29    23    24    2
    30    55    56    2
    31    55    54    1
    32    54    53    1
    33    42    41    1
    34    46    45    2
    35    53    45   am
    36    41    39   ar
    37    41    40   ar
    38   104   105    1
    39    45    44    1
    40   107   106    2
    41    39    37   ar
    42   105   106    1
    43   105   108    2
    44    98    96    1
    45    40    38   ar
    46   108   109    1
    47   109   110    1
    48    97    95    1
    49    96    95    1
    50    44    47    1
    51    44    43    1
    52    47    48    1
    53    37    36   ar
    54   112   111    1
    55   110   111    2
    56    43    33   am
    57    95    92    1
    58    38    36   ar
    59    36    35    1
    60    90    88   ar
    61    48    49   ar
    62    48    50   ar
    63    33    32    1
    64    33    34    2
    65    92    93    1
    66    92    91    1
    67    89    88   ar
    68    94    93    2
    69    88    87    1
    70    49    51   ar
    71    50    52   ar
    72    32    35    1
    73    32    31    1
    74    93    99   am
    75    82    79    1
    76     1     2    1
    77     3     2    1
    78     3     4    2
    79    87    84    1
    80     7     9   ar
    81     7     6   ar
    82     2     5    1
    83     5     6    1
    84    51    52   ar
    85    99   100    1
    86    84    85    1
    87    84    83    1
    88     9    10   ar
    89     6     8   ar
    90    79    80    1
    91    79    78    1
    92   100   103    1
    93   100   101    1
    94    85    86    2
    95    81    80    2
    96    78    76   am
    97    10     8   ar
    98    10    12   ar
    99     8    11   ar
   100   101   102    2
   101    72    71   ar
   102    71    70    1
   103    71    73   ar
   104    70    69    1
   105    76    75    1
   106    76    77    2
   107    12    14   ar
   108    11    13   ar
   109    75    74    1
   110    69    66    1
   111    65    66    1
   112    66    67    1
   113    14    13   ar
   114    67    68    2
