@<TRIPOS>MOLECULE
tmp/1qj6B01.pdb
 233 233 0 0 0
SMALL
GASTEIGER

@<TRIPOS>ATOM
      1  N          7.3580   25.9420   62.5050 N.3    27  LEU27      -0.1231
      2  CA         6.4180   25.4760   61.4610 C.3    27  LEU27       0.1693
      3  C          6.8480   25.7480   60.0100 C.2    27  LEU27       0.2592
      4  O          6.8670   24.9060   59.1280 O.2    27  LEU27      -0.2718
      5  CB         5.0910   26.1650   61.7270 C.3    27  LEU27       0.0284
      6  CG         4.6030   25.9400   63.1470 C.3    27  LEU27       0.0019
      7  CD1        3.2010   26.4990   63.2220 C.3    27  LEU27       0.0001
      8  CD2        4.5640   24.4520   63.5530 C.3    27  LEU27       0.0001
      9  N          7.2380   27.0220   59.8040 N.am   28  CYS28      -0.1970
     10  CA         7.4120   27.5910   58.4630 C.3    28  CYS28       0.1712
     11  C          8.1910   28.8820   58.4930 C.2    28  CYS28       0.2296
     12  O          8.3170   29.5280   59.5100 O.2    28  CYS28      -0.2864
     13  CB         6.0290   27.9210   57.9040 C.3    28  CYS28       0.0983
     14  SG         5.1160   26.5950   56.9690 S.3    28  CYS28      -0.0798
     15  N         -0.8440   26.9050   53.2590 N.3    43  HIS43      -0.1241
     16  CA        -0.5860   25.5390   53.7420 C.3    43  HIS43       0.1621
     17  C          0.1930   25.3450   55.0570 C.2    43  HIS43       0.2264
     18  O          0.0600   24.3390   55.7250 O.2    43  HIS43      -0.2867
     19  CB        -0.0090   24.6600   52.5900 C.3    43  HIS43       0.0745
     20  CG         1.4810   24.6550   52.5310 C.ar   43  HIS43       0.0817
     21  ND1        2.2150   25.3670   51.6660 N.ar   43  HIS43      -0.2268
     22  CD2        2.3280   23.9360   53.3710 C.ar   43  HIS43       0.1154
     23  CE1        3.5380   25.1230   51.9360 C.ar   43  HIS43       0.1986
     24  NE2        3.5820   24.2490   52.9840 N.ar   43  HIS43      -0.2212
     25  N         -4.1490   22.8620   56.3410 N.3    47  TYR47      -0.1241
     26  CA        -4.0380   21.7280   55.4470 C.3    47  TYR47       0.1605
     27  C         -4.7980   20.4980   55.9240 C.2    47  TYR47       0.2264
     28  O         -4.2380   19.5920   56.5450 O.2    47  TYR47      -0.2867
     29  CB        -2.5740   21.4220   55.2520 C.3    47  TYR47       0.0534
     30  CG        -2.4050   20.5670   54.0320 C.ar   47  TYR47      -0.0201
     31  CD1       -2.8100   20.9980   52.7730 C.ar   47  TYR47      -0.0009
     32  CD2       -1.8080   19.3320   54.1890 C.ar   47  TYR47      -0.0009
     33  CE1       -2.6120   20.1900   51.6540 C.ar   47  TYR47       0.0417
     34  CE2       -1.6150   18.5260   53.0770 C.ar   47  TYR47       0.0417
     35  CZ        -2.0150   18.9490   51.8150 C.ar   47  TYR47       0.1957
     36  OH        -1.8290   18.0850   50.7580 O.3    47  TYR47      -0.2866
     37  N         -3.9370   16.5790   56.4010 N.3    50  TRP50      -0.1241
     38  CA        -3.0410   16.2350   57.5150 C.3    50  TRP50       0.1605
     39  C         -3.5480   16.7310   58.8300 C.2    50  TRP50       0.2264
     40  O         -2.7820   16.9150   59.7590 O.2    50  TRP50      -0.2867
     41  CB        -1.6420   16.8520   57.3720 C.3    50  TRP50       0.0550
     42  CG        -0.8680   16.2960   56.1990 C.ar   50  TRP50       0.0003
     43  CD1       -1.2100   15.1850   55.4020 C.ar   50  TRP50       0.0946
     44  CD2        0.3460   16.7860   55.6500 C.ar   50  TRP50       0.0152
     45  NE1       -0.3120   14.9480   54.3990 N.ar   50  TRP50      -0.2442
     46  CE2        0.6710   15.9090   54.4970 C.ar   50  TRP50       0.0810
     47  CE3        1.1940   17.8610   55.9420 C.ar   50  TRP50       0.0012
     48  CZ2        1.8080   16.1960   53.7350 C.ar   50  TRP50       0.0191
     49  CZ3        2.3190   18.1030   55.1540 C.ar   50  TRP50       0.0001
     50  CH2        2.6250   17.2860   54.0610 C.ar   50  TRP50       0.0015
     51  N         -4.1130   19.6580   59.6860 N.3    52  LYS52      -0.1245
     52  CA        -3.5200   20.9190   60.1260 C.3    52  LYS52       0.1561
     53  C         -4.4390   22.1270   59.9310 C.2    52  LYS52       0.2260
     54  O         -4.9820   22.4110   58.8760 O.2    52  LYS52      -0.2867
     55  CB        -2.2180   21.0450   59.3930 C.3    52  LYS52       0.0271
     56  CG        -1.5700   22.3690   59.7180 C.3    52  LYS52       0.0035
     57  CD        -0.5330   22.6630   58.6580 C.3    52  LYS52       0.0206
     58  CE         0.6070   21.6670   58.6560 C.3    52  LYS52       0.1093
     59  NZ         1.5260   22.1470   57.6210 N.3    52  LYS52      -0.1314
     60  N         -6.6550   20.0570   45.5560 N.3    94  GLU94      -0.1231
     61  CA        -5.8670   19.6110   44.4090 C.3    94  GLU94       0.1699
     62  C         -4.3800   20.0050   44.3610 C.2    94  GLU94       0.2592
     63  O         -3.4910   19.1830   44.4750 O.2    94  GLU94      -0.2718
     64  CB        -6.5600   20.0940   43.1330 C.3    94  GLU94       0.0402
     65  CG        -6.0810   19.3300   41.8850 C.3    94  GLU94       0.1161
     66  CD        -6.3060   20.1220   40.6060 C.2    94  GLU94       0.3649
     67  OE1       -7.1190   21.0660   40.5860 O.co2  94  GLU94      -0.2457
     68  OE2       -5.6290   19.7840   39.6300 O.co2  94  GLU94      -0.2457
     69  N         -4.0770   21.2750   44.1390 N.am   95  ASN95      -0.1960
     70  CA        -2.6780   21.5140   43.7570 C.3    95  ASN95       0.1819
     71  C         -1.9420   22.6250   44.5120 C.2    95  ASN95       0.2621
     72  O         -0.8880   23.1040   44.1050 O.2    95  ASN95      -0.2715
     73  CB        -2.5710   21.7190   42.2440 C.3    95  ASN95       0.1195
     74  CG        -3.5140   22.8050   41.8180 C.2    95  ASN95       0.2630
     75  OD1       -4.3100   23.3510   42.5580 O.2    95  ASN95      -0.2716
     76  ND2       -3.4370   23.1480   40.5750 N.am   95  ASN95      -0.0877
     77  N         -2.5800   23.0600   45.6240 N.am   96  LEU96      -0.1977
     78  CA        -2.1060   24.2450   46.3940 C.3    96  LEU96       0.1596
     79  C         -2.0550   25.5450   45.6050 C.2    96  LEU96       0.2287
     80  O         -1.2100   26.3980   45.7890 O.2    96  LEU96      -0.2864
     81  CB        -0.7000   24.0870   47.0330 C.3    96  LEU96       0.0297
     82  CG        -0.5180   22.9500   48.0300 C.3    96  LEU96       0.0022
     83  CD1        0.8720   23.0320   48.6480 C.3    96  LEU96       0.0001
     84  CD2       -1.6120   22.9190   49.0880 C.3    96  LEU96       0.0001
     85  N         10.8880   14.6450   53.4300 N.3   148  TRP148     -0.1241
     86  CA         9.7510   13.7010   53.1590 C.3   148  TRP148      0.1605
     87  C         10.2530   12.3360   52.6220 C.2   148  TRP148      0.2264
     88  O          9.9640   11.8560   51.5310 O.2   148  TRP148     -0.2867
     89  CB         8.6330   14.2610   52.2170 C.3   148  TRP148      0.0550
     90  CG         8.4150   15.7580   52.3960 C.ar  148  TRP148      0.0003
     91  CD1        7.5620   16.4450   53.3070 C.ar  148  TRP148      0.0946
     92  CD2        9.1400   16.7490   51.7040 C.ar  148  TRP148      0.0152
     93  NE1        7.7340   17.8050   53.2310 N.ar  148  TRP148     -0.2442
     94  CE2        8.7030   18.0400   52.2660 C.ar  148  TRP148      0.0810
     95  CE3       10.0920   16.7090   50.6890 C.ar  148  TRP148      0.0012
     96  CZ2        9.2870   19.1860   51.7530 C.ar  148  TRP148      0.0191
     97  CZ3       10.6230   17.8970   50.2180 C.ar  148  TRP148      0.0001
     98  CH2       10.2320   19.1150   50.7420 C.ar  148  TRP148      0.0015
     99  N          1.4790   17.0960   38.5890 N.3   179  ILE179     -0.1245
    100  CA         0.5370   18.0950   39.1770 C.3   179  ILE179      0.1561
    101  C          0.1170   19.1420   38.1730 C.2   179  ILE179      0.2260
    102  O          0.9220   19.6810   37.4360 O.2   179  ILE179     -0.2867
    103  CB         1.1650   18.8720   40.3850 C.3   179  ILE179      0.0252
    104  CG1        1.6390   17.8940   41.4460 C.3   179  ILE179      0.0019
    105  CG2        0.1980   19.8390   41.0770 C.3   179  ILE179      0.0019
    106  CD1        0.4600   17.0450   41.9290 C.3   179  ILE179      0.0001
    107  N         18.0970   23.9790   46.5940 N.3   199  ASP199     -0.1225
    108  CA        16.6380   24.0000   46.6770 C.3   199  ASP199      0.1805
    109  C         16.1780   24.4220   48.0600 C.2   199  ASP199      0.2598
    110  O         16.8930   24.3390   49.0360 O.2   199  ASP199     -0.2718
    111  CB        16.0740   22.5860   46.2740 C.3   199  ASP199      0.1424
    112  CG        14.5480   22.4600   46.1330 C.2   199  ASP199      0.3668
    113  OD1       13.8390   23.4550   45.9520 O.co2 199  ASP199     -0.2456
    114  OD2       14.0340   21.3430   46.2140 O.co2 199  ASP199     -0.2456
    115  N         14.9370   24.8400   48.1630 N.am  200  ALA200     -0.1966
    116  CA        14.2830   24.7500   49.4460 C.3   200  ALA200      0.1728
    117  C         13.9660   23.2960   49.8600 C.2   200  ALA200      0.2616
    118  O         14.1320   22.3430   49.1350 O.2   200  ALA200     -0.2715
    119  CB        12.9930   25.5970   49.4270 C.3   200  ALA200      0.0334
    120  N         13.5050   23.1420   51.0790 N.am  201  CYS201     -0.1954
    121  CA        13.2050   21.8250   51.6600 C.3   201  CYS201      0.1843
    122  C         12.2200   21.9940   52.7840 C.2   201  CYS201      0.2625
    123  O         11.7880   23.1140   53.0330 O.2   201  CYS201     -0.2714
    124  CB        14.4660   21.1070   52.1980 C.3   201  CYS201      0.0997
    125  SG        14.2450   19.3120   52.2950 S.3   201  CYS201     -0.0797
    126  N         11.8740   20.9120   53.4680 N.am  202  GLU202     -0.1963
    127  CA        10.8960   21.1140   54.5380 C.3   202  GLU202      0.1733
    128  C         11.2550   22.0860   55.6970 C.2   202  GLU202      0.2616
    129  O         12.4150   22.2360   56.0520 O.2   202  GLU202     -0.2715
    130  CB        10.6040   19.7330   55.0160 C.3   202  GLU202      0.0429
    131  CG         9.1660   19.7170   55.4380 C.3   202  GLU202      0.1163
    132  CD         9.1750   19.2010   56.8300 C.2   202  GLU202      0.3649
    133  OE1        9.7380   18.1070   57.0230 O.co2 202  GLU202     -0.2457
    134  OE2        8.6360   19.9020   57.7050 O.co2 202  GLU202     -0.2457
    135  N         10.2700   22.8170   56.2420 N.am  203  GLY203     -0.1955
    136  CA        10.5990   23.8740   57.2270 C.3   203  GLY203      0.1869
    137  C         10.8760   25.2580   56.6330 C.2   203  GLY203      0.2309
    138  O         10.8730   26.2690   57.3020 O.2   203  GLY203     -0.2863
    139  N          8.9880   26.2830   53.7490 N.3   205  SER205     -0.1160
    140  CA         7.6950   26.7010   53.1850 C.3   205  SER205      0.2201
    141  C          7.1740   27.9460   53.8410 C.2   205  SER205      0.2341
    142  O          7.3840   28.2230   55.0170 O.2   205  SER205     -0.2862
    143  CB         6.5640   25.6720   53.2090 C.2   205  SER205      0.2341
    144  OG         6.6970   24.4400   53.1550 O.2   205  SER205     -0.2862
    145  N          7.7470   30.3000   49.1070 N.3   225  VAL225     -0.1231
    146  CA         8.0240   28.8480   49.0420 C.3   225  VAL225      0.1692
    147  C          6.7660   28.0030   49.2820 C.2   225  VAL225      0.2593
    148  O          6.0990   28.0510   50.3060 O.2   225  VAL225     -0.2718
    149  CB         9.2030   28.4220   49.9840 C.3   225  VAL225      0.0266
    150  CG1        9.5780   26.9380   49.8120 C.3   225  VAL225      0.0020
    151  CG2       10.4830   29.2430   49.8550 C.3   225  VAL225      0.0020
    152  N          6.3920   27.2940   48.2100 N.am  226  SER226     -0.1938
    153  CA         5.0730   26.6400   48.2470 C.3   226  SER226      0.2055
    154  C          5.0970   25.1200   48.2610 C.2   226  SER226      0.2643
    155  O          4.6050   24.4940   49.1830 O.2   226  SER226     -0.2714
    156  CB         4.1820   27.0430   47.0630 C.3   226  SER226      0.2130
    157  OG         2.9000   26.4380   47.1830 O.3   226  SER226     -0.2179
    158  N          5.6420   24.5460   47.1780 N.am  227  TRP227     -0.1959
    159  CA         5.7420   23.0820   47.1400 C.3   227  TRP227      0.1771
    160  C          6.8300   22.5680   46.2440 C.2   227  TRP227      0.2620
    161  O          7.4710   23.2790   45.4870 O.2   227  TRP227     -0.2715
    162  CB         4.3590   22.4060   46.8560 C.3   227  TRP227      0.0590
    163  CG         3.8210   22.7500   45.4870 C.ar  227  TRP227      0.0006
    164  CD1        3.0580   23.8720   45.1560 C.ar  227  TRP227      0.0946
    165  CD2        3.9330   22.0170   44.2920 C.ar  227  TRP227      0.0152
    166  NE1        2.6810   23.9000   43.8570 N.ar  227  TRP227     -0.2442
    167  CE2        3.1900   22.7800   43.2760 C.ar  227  TRP227      0.0810
    168  CE3        4.5450   20.8210   43.9360 C.ar  227  TRP227      0.0012
    169  CZ2        3.1280   22.2680   41.9840 C.ar  227  TRP227      0.0191
    170  CZ3        4.4610   20.3530   42.6420 C.ar  227  TRP227      0.0001
    171  CH2        3.7620   21.0700   41.6760 C.ar  227  TRP227      0.0015
    172  N          7.1010   21.2790   46.3590 N.am  228  GLY228     -0.1940
    173  CA         8.0590   20.6950   45.4180 C.3   228  GLY228      0.2014
    174  C          8.1720   19.2140   45.6470 C.2   228  GLY228      0.2639
    175  O          7.8380   18.7130   46.6900 O.2   228  GLY228     -0.2714
    176  N          8.6370   18.4820   44.6720 N.am  229  GLU229     -0.1963
    177  CA         8.6770   17.0310   44.9360 C.3   229  GLU229      0.1733
    178  C         10.0420   16.5880   45.4020 C.2   229  GLU229      0.2617
    179  O         11.0320   16.6270   44.6910 O.2   229  GLU229     -0.2715
    180  CB         8.2440   16.2910   43.6680 C.3   229  GLU229      0.0429
    181  CG         6.7980   16.6920   43.3620 C.3   229  GLU229      0.1163
    182  CD         6.3770   16.4760   41.9020 C.2   229  GLU229      0.3649
    183  OE1        7.1120   16.8460   40.9770 O.co2 229  GLU229     -0.2457
    184  OE2        5.2720   15.9690   41.7050 O.co2 229  GLU229     -0.2457
    185  N         10.0860   16.2510   46.6800 N.am  230  GLY230     -0.1940
    186  CA        11.4330   16.0920   47.2430 C.3   230  GLY230      0.2014
    187  C         12.2100   17.3800   47.4820 C.2   230  GLY230      0.2639
    188  O         11.6850   18.4760   47.4220 O.2   230  GLY230     -0.2714
    189  N         13.4770   17.2560   47.7590 N.am  231  CYS231     -0.1967
    190  CA        14.2660   18.4820   47.8910 C.3   231  CYS231      0.1712
    191  C         15.4960   18.3320   47.0660 C.2   231  CYS231      0.2296
    192  O         16.2360   17.3800   47.2570 O.2   231  CYS231     -0.2864
    193  CB        14.7520   18.6860   49.3280 C.3   231  CYS231      0.0983
    194  SG        13.4150   18.7330   50.5170 S.3   231  CYS231     -0.0798
    195  N         11.7480   20.5870   40.3920 N.3   237  TYR237     -0.1227
    196  CA        11.9210   22.0140   40.6120 C.3   237  TYR237      0.1736
    197  C         11.1130   22.4550   41.7960 C.2   237  TYR237      0.2596
    198  O         10.0980   21.8830   42.1580 O.2   237  TYR237     -0.2718
    199  CB        11.4300   22.8100   39.3790 C.3   237  TYR237      0.0548
    200  CG        12.2600   22.4750   38.1700 C.ar  237  TYR237     -0.0200
    201  CD1       13.5240   23.0050   38.0620 C.ar  237  TYR237     -0.0009
    202  CD2       11.7980   21.5910   37.2060 C.ar  237  TYR237     -0.0009
    203  CE1       14.3490   22.6550   37.0200 C.ar  237  TYR237      0.0417
    204  CE2       12.6380   21.2370   36.1630 C.ar  237  TYR237      0.0417
    205  CZ        13.9120   21.7580   36.0740 C.ar  237  TYR237      0.1957
    206  OH        14.7990   21.3750   35.0940 O.3   237  TYR237     -0.2866
    207  N         11.5490   23.5340   42.4320 N.am  238  GLY238     -0.1942
    208  CA        10.6150   24.1170   43.4090 C.3   238  GLY238      0.2014
    209  C          9.5210   24.9920   42.8220 C.2   238  GLY238      0.2639
    210  O          9.7280   25.7220   41.8730 O.2   238  GLY238     -0.2714
    211  N          8.3680   24.9020   43.4270 N.am  239  PHE239     -0.1959
    212  CA         7.2550   25.7850   43.0680 C.3   239  PHE239      0.1771
    213  C          6.9390   26.8400   44.1490 C.2   239  PHE239      0.2619
    214  O          6.9600   26.6560   45.3680 O.2   239  PHE239     -0.2715
    215  CB         5.9530   24.9790   42.7840 C.3   239  PHE239      0.0574
    216  CG         6.0860   24.1530   41.5050 C.ar  239  PHE239     -0.0200
    217  CD1        6.8250   22.9720   41.4480 C.ar  239  PHE239     -0.0042
    218  CD2        5.5330   24.6050   40.3190 C.ar  239  PHE239     -0.0042
    219  CE1        7.0300   22.2670   40.2490 C.ar  239  PHE239     -0.0003
    220  CE2        5.7500   23.9060   39.1260 C.ar  239  PHE239     -0.0003
    221  CZ         6.4940   22.7360   39.0680 C.ar  239  PHE239     -0.0000
    222  N          6.6560   28.0160   43.6130 N.am  240  TYR240     -0.1974
    223  CA         6.4220   29.2210   44.4180 C.3   240  TYR240      0.1639
    224  C          5.1120   29.8670   44.0830 C.2   240  TYR240      0.2290
    225  O          4.7360   29.9850   42.9400 O.2   240  TYR240     -0.2864
    226  CB         7.5550   30.2360   44.1040 C.3   240  TYR240      0.0560
    227  CG         8.9180   29.6400   44.4270 C.ar  240  TYR240     -0.0198
    228  CD1        9.6130   28.8200   43.5280 C.ar  240  TYR240     -0.0009
    229  CD2        9.4520   29.8890   45.6750 C.ar  240  TYR240     -0.0009
    230  CE1       10.8170   28.2400   43.8810 C.ar  240  TYR240      0.0417
    231  CE2       10.6600   29.3280   46.0080 C.ar  240  TYR240      0.0417
    232  CZ        11.3260   28.5050   45.1400 C.ar  240  TYR240      0.1957
    233  OH        12.4710   27.9100   45.6070 O.3   240  TYR240     -0.2866
@<TRIPOS>BOND
     1   206   205    1
     2   205   204   ar
     3   205   203   ar
     4   204   202   ar
     5   203   201   ar
     6   202   200   ar
     7   102   101    2
     8   201   200   ar
     9   200   199    1
    10   101   100    1
    11    99   100    1
    12   221   220   ar
    13   221   219   ar
    14   220   218   ar
    15   100   103    1
    16   199   196    1
    17    68    66   ar
    18   219   217   ar
    19   218   216   ar
    20   103   105    1
    21   103   104    1
    22   195   196    1
    23    76    74   am
    24    67    66   ar
    25    66    65    1
    26   196   197    1
    27   183   182   ar
    28   104   106    1
    29   217   216   ar
    30   216   215    1
    31   171   169   ar
    32   171   170   ar
    33   184   182   ar
    34   197   198    2
    35   197   207   am
    36    74    73    1
    37    74    75    2
    38   210   209    2
    39    65    64    1
    40   182   181    1
    41   169   167   ar
    42    73    70    1
    43   207   208    1
    44   170   168   ar
    45   215   212    1
    46   209   208    1
    47   209   211   am
    48   225   224    2
    49   212   211    1
    50   212   213    1
    51    64    61    1
    52   167   166   ar
    53   167   165   ar
    54   181   180    1
    55   228   230   ar
    56   228   227   ar
    57   222   213   am
    58   222   223    1
    59   180   177    1
    60    70    69    1
    61    70    71    1
    62   166   164   ar
    63   230   232   ar
    64   168   165   ar
    65   224   223    1
    66   226   223    1
    67   226   227    1
    68    72    71    2
    69    69    62   am
    70   213   214    2
    71   165   163   ar
    72    62    61    1
    73    62    63    2
    74    61    60    1
    75   227   229   ar
    76    71    77   am
    77   176   177    1
    78   176   174   am
    79   179   178    2
    80   177   178    1
    81   232   233    1
    82   232   231   ar
    83   164   163   ar
    84   178   185   am
    85   173   174    1
    86   173   172    1
    87   161   160    2
    88   163   162    1
    89    79    80    2
    90    79    78    1
    91    77    78    1
    92   174   175    2
    93   229   231   ar
    94   113   112   ar
    95   112   114   ar
    96   112   111    1
    97   160   172   am
    98   160   159    1
    99   111   108    1
   100    78    81    1
   101   107   108    1
   102   108   109    1
   103   185   186    1
   104   162   159    1
   105    81    82    1
   106   156   157    1
   107   156   153    1
   108   191   192    2
   109   191   190    1
   110   159   158    1
   111   158   154   am
   112   186   187    1
   113   188   187    2
   114   187   189   am
   115   189   190    1
   116   190   193    1
   117    82    83    1
   118    82    84    1
   119   109   115   am
   120   109   110    2
   121   115   116    1
   122   152   153    1
   123   152   147   am
   124   153   154    1
   125   154   155    2
   126   146   145    1
   127   146   147    1
   128   146   149    1
   129   118   117    2
   130   147   148    2
   131   193   194    1
   132   119   116    1
   133   116   117    1
   134   150   149    1
   135   151   149    1
   136   117   120   am
   137    97    95   ar
   138    97    98   ar
   139   194   125    1
   140    95    92   ar
   141    98    96   ar
   142    36    35    1
   143   120   121    1
   144    88    87    2
   145    33    35   ar
   146    33    31   ar
   147   121   124    1
   148   121   122    1
   149    21    23   ar
   150    21    20   ar
   151    92    94   ar
   152    92    90   ar
   153    96    94   ar
   154    35    34   ar
   155    23    24   ar
   156   124   125    1
   157    89    90    1
   158    89    86    1
   159    94    93   ar
   160    90    91   ar
   161    20    19    1
   162    20    22   ar
   163    19    16    1
   164    87    86    1
   165    31    30   ar
   166   122   123    2
   167   122   126   am
   168    24    22   ar
   169    34    32   ar
   170   144   143    2
   171    86    85    1
   172   140   143    1
   173   140   139    1
   174   140   141    1
   175    93    91   ar
   176    15    16    1
   177   126   127    1
   178    48    50   ar
   179    48    46   ar
   180    16    17    1
   181   141   142    2
   182    30    32   ar
   183    30    29    1
   184    50    49   ar
   185    45    46   ar
   186    45    43   ar
   187    46    44   ar
   188   127   130    1
   189   127   128    1
   190   130   131    1
   191    17    18    2
   192    49    47   ar
   193    29    26    1
   194    43    42   ar
   195   131   132    1
   196    26    27    1
   197    26    25    1
   198    44    47   ar
   199    44    42   ar
   200   128   129    2
   201   128   135   am
   202    27    28    2
   203    42    41    1
   204   135   136    1
   205    37    38    1
   206   137   136    1
   207   137   138    2
   208   132   133   ar
   209   132   134   ar
   210    14    13    1
   211    41    38    1
   212    38    39    1
   213    59    58    1
   214    13    10    1
   215    10    11    1
   216    10     9    1
   217    11    12    2
   218    58    57    1
   219    57    56    1
   220    39    40    2
   221    54    53    2
   222     4     3    2
   223    55    56    1
   224    55    52    1
   225    51    52    1
   226     9     3   am
   227    53    52    1
   228     3     2    1
   229     2     5    1
   230     2     1    1
   231     5     6    1
   232     6     7    1
   233     6     8    1
