@<TRIPOS>MOLECULE
tmp/1qj8A00.pdb
 81 80 0 0 0
SMALL
GASTEIGER

@<TRIPOS>ATOM
      1  N         42.5830   19.1400   22.9200 N.3    34  ASN34      -0.1225
      2  CA        43.3870   19.4520   21.7810 C.3    34  ASN34       0.1785
      3  C         44.7090   20.1440   21.9830 C.2    34  ASN34       0.2598
      4  O         45.0950   21.0290   21.2100 O.2    34  ASN34      -0.2718
      5  CB        42.4570   20.2690   20.7590 C.3    34  ASN34       0.1169
      6  CG        41.5760   21.1830   21.7070 C.2    34  ASN34       0.2627
      7  OD1       40.3570   21.2420   21.4650 O.2    34  ASN34      -0.2716
      8  ND2       42.1670   21.8440   22.6690 N.am   34  ASN34      -0.0877
      9  N         45.4820   19.7070   22.9700 N.am   35  SER35      -0.1938
     10  CA        46.8940   20.1230   23.0860 C.3    35  SER35       0.2040
     11  C         47.5680   19.0360   23.9430 C.2    35  SER35       0.2485
     12  O         46.8810   18.5750   24.8650 O.2    35  SER35      -0.2729
     13  CB        47.0080   21.4790   23.8410 C.3    35  SER35       0.2129
     14  OG        48.3950   21.7090   24.2230 O.3    35  SER35      -0.2179
     15  N         48.8260   18.7100   23.7230 N.am   36  PRO36      -0.2715
     16  CA        49.5430   17.7160   24.5200 C.3    36  PRO36       0.1536
     17  C         50.0020   18.3420   25.8170 C.2    36  PRO36       0.2598
     18  O         50.5170   17.6530   26.7200 O.2    36  PRO36      -0.2715
     19  CB        50.7930   17.4030   23.6470 C.3    36  PRO36       0.0310
     20  CG        51.0410   18.6630   22.9010 C.3    36  PRO36       0.0237
     21  CD        49.6520   19.2560   22.5950 C.3    36  PRO36       0.0939
     22  N         49.9220   19.6890   25.9550 N.am   37  LEU37      -0.1978
     23  CA        50.4290   20.3550   27.1330 C.3    37  LEU37       0.1596
     24  C         49.3130   20.6560   28.1630 C.2    37  LEU37       0.2287
     25  O         48.2570   21.1840   27.8250 O.2    37  LEU37      -0.2864
     26  CB        51.0750   21.7110   26.7250 C.3    37  LEU37       0.0297
     27  CG        51.6940   22.5350   27.8610 C.3    37  LEU37       0.0022
     28  CD1       52.9160   21.8670   28.4720 C.3    37  LEU37       0.0001
     29  CD2       52.0790   23.9430   27.3100 C.3    37  LEU37       0.0001
     30  N         54.3770   21.6950   34.3900 N.3    69  PRO69      -0.2168
     31  CA        53.8180   21.3080   33.1230 C.3    69  PRO69       0.1057
     32  C         53.7250   19.7610   32.9680 C.3    69  PRO69       0.1993
     33  O         54.6370   19.1330   33.5040 O.3    69  PRO69      -0.2189
     34  CB        54.8090   21.9490   32.1330 C.3    69  PRO69       0.0215
     35  CG        56.1150   21.9630   32.9150 C.3    69  PRO69       0.0203
     36  CD        55.7720   22.3100   34.2760 C.3    69  PRO69       0.0888
     37  N         53.2510   16.7690   29.9240 N.3    71  TYR71      -0.1241
     38  CA        53.1880   16.6190   28.4440 C.3    71  TYR71       0.1605
     39  C         52.7350   15.1970   28.1010 C.2    71  TYR71       0.2264
     40  O         53.4450   14.2710   28.5030 O.2    71  TYR71      -0.2867
     41  CB        54.6400   16.8950   27.9400 C.3    71  TYR71       0.0534
     42  CG        54.6760   16.8780   26.4170 C.ar   71  TYR71      -0.0201
     43  CD1       54.1880   17.9550   25.6840 C.ar   71  TYR71      -0.0009
     44  CD2       55.2400   15.7880   25.7650 C.ar   71  TYR71      -0.0009
     45  CE1       54.2800   17.9460   24.2780 C.ar   71  TYR71       0.0417
     46  CE2       55.3140   15.7530   24.3770 C.ar   71  TYR71       0.0417
     47  CZ        54.8180   16.8480   23.6730 C.ar   71  TYR71       0.1957
     48  OH        54.9090   16.7830   22.3220 O.3    71  TYR71      -0.2866
     49  N         54.7190   12.6710   30.5480 N.3    79  ILE79      -0.1231
     50  CA        55.8370   13.0160   31.4090 C.3    79  ILE79       0.1692
     51  C         55.5340   14.3760   32.0460 C.2    79  ILE79       0.2592
     52  O         54.9130   15.2610   31.4290 O.2    79  ILE79      -0.2718
     53  CB        57.2240   13.0040   30.7760 C.3    79  ILE79       0.0266
     54  CG1       57.4050   14.0380   29.6470 C.3    79  ILE79       0.0019
     55  CG2       57.5060   11.5530   30.2300 C.3    79  ILE79       0.0020
     56  CD1       58.7840   13.9620   28.9980 C.3    79  ILE79       0.0001
     57  N         56.0810   14.6500   33.2390 N.am   80  TYR80      -0.1962
     58  CA        55.8630   15.9590   33.8620 C.3    80  TYR80       0.1771
     59  C         57.0410   16.3350   34.7390 C.2    80  TYR80       0.2620
     60  O         57.8020   15.4550   35.1750 O.2    80  TYR80      -0.2715
     61  CB        54.5510   15.9940   34.6260 C.3    80  TYR80       0.0574
     62  CG        54.3760   14.9050   35.6740 C.ar   80  TYR80      -0.0198
     63  CD1       54.9270   15.0670   36.9270 C.ar   80  TYR80      -0.0009
     64  CD2       53.6840   13.7600   35.3830 C.ar   80  TYR80      -0.0009
     65  CE1       54.7880   14.0820   37.8820 C.ar   80  TYR80       0.0417
     66  CE2       53.4560   12.7700   36.3280 C.ar   80  TYR80       0.0417
     67  CZ        53.9950   12.9620   37.5920 C.ar   80  TYR80       0.1957
     68  OH        53.8190   12.0180   38.5800 O.3    80  TYR80      -0.2866
     69  N         57.1410   17.6280   34.9480 N.am   81  GLY81      -0.1954
     70  CA        58.2030   18.1680   35.8300 C.3    81  GLY81       0.1869
     71  C         57.4720   19.1280   36.7760 C.2    81  GLY81       0.2309
     72  O         56.5240   19.8060   36.2780 O.2    81  GLY81      -0.2863
     73  N         59.8510   15.0270   39.2020 N.3   111  ALA111     -0.1231
     74  CA        59.5380   14.6840   37.7970 C.3   111  ALA111      0.1694
     75  C         58.9000   13.3340   37.8070 C.2   111  ALA111      0.2592
     76  O         59.1100   12.5560   38.7760 O.2   111  ALA111     -0.2718
     77  CB        60.8480   14.6970   36.9550 C.3   111  ALA111      0.0304
     78  N         58.0250   13.0750   36.8160 N.am  112  GLY112     -0.1957
     79  CA        57.4250   11.7240   36.8840 C.3   112  GLY112      0.1869
     80  C         56.8650   11.3650   35.5310 C.2   112  GLY112      0.2309
     81  O         57.0710   12.0780   34.5460 O.2   112  GLY112     -0.2863
@<TRIPOS>BOND
     1     5     6    1
     2     5     2    1
     3     4     3    2
     4     7     6    2
     5     6     8   am
     6     2     3    1
     7     2     1    1
     8     3     9   am
     9    48    47    1
    10    21    20    1
    11    21    15    1
    12    20    19    1
    13     9    10    1
    14    10    13    1
    15    10    11    1
    16    19    16    1
    17    47    45   ar
    18    47    46   ar
    19    15    11   am
    20    15    16    1
    21    13    14    1
    22    11    12    2
    23    45    43   ar
    24    46    44   ar
    25    16    17    1
    26    43    42   ar
    27    44    42   ar
    28    17    22   am
    29    17    18    2
    30    22    23    1
    31    42    41    1
    32    26    23    1
    33    26    27    1
    34    23    24    1
    35    29    27    1
    36    25    24    2
    37    27    28    1
    38    41    38    1
    39    39    38    1
    40    39    40    2
    41    38    37    1
    42    56    54    1
    43    54    53    1
    44    55    53    1
    45    49    50    1
    46    53    50    1
    47    50    51    1
    48    52    51    2
    49    51    57   am
    50    34    35    1
    51    34    31    1
    52    35    36    1
    53    32    31    1
    54    32    33    1
    55    31    30    1
    56    57    58    1
    57    58    61    1
    58    58    59    1
    59    36    30    1
    60    81    80    2
    61    61    62    1
    62    59    69   am
    63    59    60    2
    64    69    70    1
    65    64    62   ar
    66    64    66   ar
    67    80    79    1
    68    62    63   ar
    69    70    71    1
    70    72    71    2
    71    66    67   ar
    72    78    79    1
    73    78    75   am
    74    63    65   ar
    75    77    74    1
    76    67    65   ar
    77    67    68    1
    78    74    75    1
    79    74    73    1
    80    75    76    2
