@<TRIPOS>MOLECULE
tmp/1qjbB00.pdb
 220 208 0 0 0
SMALL
GASTEIGER

@<TRIPOS>ATOM
      1  N         30.2370   16.5710   61.9650 N.3    45  SER45      -0.1202
      2  CA        30.1810   17.2560   60.7020 C.3    45  SER45       0.2020
      3  C         29.8530   16.3400   59.5210 C.2    45  SER45       0.2618
      4  O         29.0030   16.6410   58.6780 O.2    45  SER45      -0.2717
      5  CB        31.5460   17.9530   60.4960 C.3    45  SER45       0.2103
      6  OG        31.5960   18.5170   59.1950 O.3    45  SER45      -0.2182
      7  N         30.5380   15.2230   59.4180 N.am   46  VAL46      -0.1979
      8  CA        30.2640   14.1850   58.4400 C.3    46  VAL46       0.1595
      9  C         28.8450   13.6460   58.6440 C.2    46  VAL46       0.2287
     10  O         28.1040   13.5800   57.6550 O.2    46  VAL46      -0.2864
     11  CB        31.2760   13.0310   58.4680 C.3    46  VAL46       0.0276
     12  CG1       30.7920   11.7820   57.7070 C.3    46  VAL46       0.0022
     13  CG2       32.5850   13.4820   57.8310 C.3    46  VAL46       0.0022
     14  N         26.1960   16.3530   57.6550 N.3    49  LYS49      -0.1245
     15  CA        26.3010   16.7290   56.2410 C.3    49  LYS49       0.1561
     16  C         25.5950   15.6560   55.3970 C.2    49  LYS49       0.2260
     17  O         24.8860   15.9830   54.4320 O.2    49  LYS49      -0.2867
     18  CB        27.7340   16.9500   55.7950 C.3    49  LYS49       0.0271
     19  CG        27.9140   17.4520   54.3650 C.3    49  LYS49       0.0035
     20  CD        27.1550   18.7680   54.1410 C.3    49  LYS49       0.0206
     21  CE        26.7350   18.9030   52.6830 C.3    49  LYS49       0.1093
     22  NZ        27.8690   19.2770   51.7830 N.3    49  LYS49      -0.1314
     23  N         18.5930   17.6170   50.9230 N.3    56  ARG56      -0.1245
     24  CA        18.8600   18.6320   49.9150 C.3    56  ARG56       0.1563
     25  C         18.7620   17.9820   48.5210 C.2    56  ARG56       0.2260
     26  O         18.2080   18.5000   47.5490 O.2    56  ARG56      -0.2867
     27  CB        20.2190   19.3260   50.0410 C.3    56  ARG56       0.0307
     28  CG        20.3340   20.1810   51.3120 C.3    56  ARG56       0.0489
     29  CD        21.6990   20.8130   51.4650 C.3    56  ARG56       0.2205
     30  NE        22.0690   21.8510   50.4760 N.pl3  56  ARG56      -0.0865
     31  CZ        23.3360   21.8600   50.0170 C.cat  56  ARG56       0.5346
     32  NH1       24.2110   20.9340   50.4260 N.pl3  56  ARG56       0.1354
     33  NH2       23.8030   22.8120   49.2020 N.pl3  56  ARG56       0.1354
     34  N         15.9920   18.8700   45.6220 N.3    60  ARG60      -0.1245
     35  CA        16.3310   19.2990   44.2630 C.3    60  ARG60       0.1563
     36  C         15.6520   18.4320   43.2010 C.2    60  ARG60       0.2260
     37  O         15.2470   18.9540   42.1480 O.2    60  ARG60      -0.2867
     38  CB        17.8510   19.2600   44.0210 C.3    60  ARG60       0.0307
     39  CG        18.6350   20.3440   44.7990 C.3    60  ARG60       0.0489
     40  CD        20.1470   20.1750   44.5190 C.3    60  ARG60       0.2205
     41  NE        20.8630   20.0590   45.7730 N.pl3  60  ARG60      -0.0865
     42  CZ        21.9230   20.6290   46.2980 C.cat  60  ARG60       0.5346
     43  NH1       22.7030   21.5450   45.7270 N.pl3  60  ARG60       0.1354
     44  NH2       22.2670   20.2430   47.5220 N.pl3  60  ARG60       0.1354
     45  N         35.8450   27.0380   62.1890 N.3   117  PHE117     -0.1241
     46  CA        35.1250   25.8480   61.7580 C.3   117  PHE117      0.1605
     47  C         33.6270   25.9280   62.0490 C.2   117  PHE117      0.2264
     48  O         32.8120   25.6810   61.1610 O.2   117  PHE117     -0.2867
     49  CB        35.6570   24.5630   62.3800 C.3   117  PHE117      0.0534
     50  CG        34.9860   23.2880   61.9780 C.ar  117  PHE117     -0.0203
     51  CD1       33.8080   22.8490   62.5720 C.ar  117  PHE117     -0.0042
     52  CD2       35.5770   22.5160   60.9780 C.ar  117  PHE117     -0.0042
     53  CE1       33.2210   21.6510   62.1910 C.ar  117  PHE117     -0.0003
     54  CE2       34.9830   21.3180   60.5810 C.ar  117  PHE117     -0.0003
     55  CZ        33.8350   20.8980   61.2000 C.ar  117  PHE117     -0.0000
     56  N         31.6550   28.8300   60.1690 N.3   120  LYS120     -0.1245
     57  CA        31.4650   28.3580   58.7870 C.3   120  LYS120      0.1561
     58  C         30.2300   27.4510   58.7460 C.2   120  LYS120      0.2260
     59  O         29.3090   27.6230   57.9470 O.2   120  LYS120     -0.2867
     60  CB        32.6880   27.5580   58.3360 C.3   120  LYS120      0.0271
     61  CG        32.5570   26.9500   56.9460 C.3   120  LYS120      0.0035
     62  CD        33.7040   26.0600   56.5240 C.3   120  LYS120      0.0206
     63  CE        33.3520   25.4310   55.1460 C.3   120  LYS120      0.1093
     64  NZ        32.4270   24.2530   55.3560 N.3   120  LYS120     -0.1314
     65  N         26.8530   27.7140   56.6910 N.3   124  ASP124     -0.1239
     66  CA        26.3920   26.6030   55.8710 C.3   124  ASP124      0.1674
     67  C         24.9770   26.1310   56.1570 C.2   124  ASP124      0.2266
     68  O         24.1520   26.0630   55.2100 O.2   124  ASP124     -0.2867
     69  CB        27.3100   25.3600   56.0470 C.3   124  ASP124      0.1410
     70  CG        28.6940   25.5380   55.5190 C.2   124  ASP124      0.3668
     71  OD1       28.9690   26.4170   54.6510 O.co2 124  ASP124     -0.2456
     72  OD2       29.6010   24.7770   55.9290 O.co2 124  ASP124     -0.2456
     73  N         22.6970   28.7580   55.2130 N.3   127  ARG127     -0.1231
     74  CA        22.6360   28.7520   53.7520 C.3   127  ARG127      0.1694
     75  C         21.6490   27.6450   53.2880 C.2   127  ARG127      0.2592
     76  O         20.7850   27.9000   52.4260 O.2   127  ARG127     -0.2718
     77  CB        24.0390   28.5720   53.1270 C.3   127  ARG127      0.0321
     78  CG        23.9620   28.3720   51.5850 C.3   127  ARG127      0.0489
     79  CD        25.2910   28.7220   50.8820 C.3   127  ARG127      0.2205
     80  NE        26.3410   27.8790   51.4370 N.pl3 127  ARG127     -0.0865
     81  CZ        26.6160   26.6240   51.0660 C.cat 127  ARG127      0.5346
     82  NH1       25.9690   26.0370   50.0540 N.pl3 127  ARG127      0.1354
     83  NH2       27.5680   25.9930   51.7740 N.pl3 127  ARG127      0.1354
     84  N         21.6320   26.4630   53.9460 N.am  128  TYR128     -0.1976
     85  CA        20.6860   25.3960   53.5320 C.3   128  TYR128      0.1639
     86  C         19.2580   25.8060   53.8190 C.2   128  TYR128      0.2290
     87  O         18.3620   25.5250   53.0120 O.2   128  TYR128     -0.2864
     88  CB        21.0390   24.0230   54.1310 C.3   128  TYR128      0.0560
     89  CG        22.4830   23.5670   53.9420 C.ar  128  TYR128     -0.0198
     90  CD1       23.2010   23.9200   52.7930 C.ar  128  TYR128     -0.0009
     91  CD2       23.1050   22.8040   54.9220 C.ar  128  TYR128     -0.0009
     92  CE1       24.5130   23.5250   52.6160 C.ar  128  TYR128      0.0417
     93  CE2       24.4280   22.4290   54.7360 C.ar  128  TYR128      0.0417
     94  CZ        25.1320   22.7930   53.6290 C.ar  128  TYR128      0.1957
     95  OH        26.4330   22.3860   53.4840 O.3   128  TYR128     -0.2866
     96  N         43.2870   24.5540   55.2710 N.2   165  PRO165     -0.2584
     97  CA        42.0930   23.9560   54.6980 C.3   165  PRO165      0.1895
     98  C         40.7960   24.4960   55.2530 C.2   165  PRO165      0.2359
     99  O         39.8080   24.5640   54.5100 O.2   165  PRO165     -0.2858
    100  CB        42.2250   22.4590   54.9350 C.2   165  PRO165      0.0071
    101  CG        43.4590   22.2440   55.7420 C.2   165  PRO165      0.0180
    102  CD        44.2190   23.5380   55.8310 C.2   165  PRO165      0.0937
    103  N         38.3340   26.4370   52.8500 N.3   169  GLY169     -0.1225
    104  CA        37.0030   25.8400   52.7670 C.3   169  GLY169      0.1811
    105  C         35.9260   26.8730   53.0490 C.2   169  GLY169      0.2280
    106  O         34.8260   26.8310   52.4610 O.2   169  GLY169     -0.2866
    107  N         35.6880   29.1570   49.9620 N.3   172  LEU172     -0.1231
    108  CA        34.8960   28.3920   49.0010 C.3   172  LEU172      0.1693
    109  C         33.4110   28.5100   49.3160 C.2   172  LEU172      0.2592
    110  O         32.6380   28.9450   48.4390 O.2   172  LEU172     -0.2718
    111  CB        35.2840   26.8950   49.0510 C.3   172  LEU172      0.0284
    112  CG        34.5760   25.9860   48.0290 C.3   172  LEU172      0.0019
    113  CD1       34.8540   26.4430   46.5920 C.3   172  LEU172      0.0001
    114  CD2       35.1050   24.5390   48.2190 C.3   172  LEU172      0.0001
    115  N         32.9900   28.1190   50.5520 N.am  173  ASN173     -0.1974
    116  CA        31.5600   28.1630   50.8320 C.3   173  ASN173      0.1688
    117  C         30.9290   29.5480   50.8680 C.2   173  ASN173      0.2292
    118  O         29.7410   29.7580   50.5350 O.2   173  ASN173     -0.2864
    119  CB        31.2030   27.3680   52.0990 C.3   173  ASN173      0.1181
    120  CG        31.3240   25.8470   51.8940 C.2   173  ASN173      0.2629
    121  OD1       31.9180   25.3940   50.9080 O.2   173  ASN173     -0.2716
    122  ND2       30.7840   25.1150   52.8530 N.am  173  ASN173     -0.0877
    123  N         30.2150   30.5630   47.4000 N.3   176  VAL176     -0.1245
    124  CA        29.0240   29.8690   46.9200 C.3   176  VAL176      0.1561
    125  C         27.8150   30.6100   47.4800 C.2   176  VAL176      0.2260
    126  O         26.7820   30.8120   46.8170 O.2   176  VAL176     -0.2867
    127  CB        28.9330   28.3950   47.4000 C.3   176  VAL176      0.0252
    128  CG1       27.5670   27.7590   47.1690 C.3   176  VAL176      0.0019
    129  CG2       30.0450   27.5640   46.7270 C.3   176  VAL176      0.0019
    130  N         27.2810   33.7210   45.2530 N.3   179  TYR179     -0.1227
    131  CA        26.7940   33.3050   43.9570 C.3   179  TYR179      0.1736
    132  C         25.3670   32.7740   43.9720 C.2   179  TYR179      0.2595
    133  O         24.5480   33.1790   43.1430 O.2   179  TYR179     -0.2718
    134  CB        27.7380   32.2070   43.3830 C.3   179  TYR179      0.0548
    135  CG        27.2390   31.7780   42.0040 C.ar  179  TYR179     -0.0200
    136  CD1       27.6450   32.4610   40.8720 C.ar  179  TYR179     -0.0009
    137  CD2       26.3480   30.7120   41.8860 C.ar  179  TYR179     -0.0009
    138  CE1       27.1710   32.0950   39.6200 C.ar  179  TYR179      0.0417
    139  CE2       25.8680   30.3640   40.6370 C.ar  179  TYR179      0.0417
    140  CZ        26.2830   31.0450   39.5240 C.ar  179  TYR179      0.1957
    141  OH        25.8200   30.6670   38.2880 O.3   179  TYR179     -0.2866
    142  N         25.0420   31.7980   44.8160 N.am  180  GLU180     -0.1979
    143  CA        23.7290   31.1720   44.7810 C.3   180  GLU180      0.1602
    144  C         22.6620   31.8560   45.6120 C.2   180  GLU180      0.2287
    145  O         21.4700   31.8040   45.3310 O.2   180  GLU180     -0.2864
    146  CB        23.9330   29.7370   45.3350 C.3   180  GLU180      0.0415
    147  CG        22.6490   28.9430   45.4490 C.3   180  GLU180      0.1163
    148  CD        22.1730   28.4860   44.0680 C.2   180  GLU180      0.3649
    149  OE1       22.9950   28.5250   43.1130 O.co2 180  GLU180     -0.2457
    150  OE2       20.9790   28.1040   43.9730 O.co2 180  GLU180     -0.2457
    151  N         43.8580   17.9770   51.6870 N.3   213  ASP213     -0.1239
    152  CA        42.6550   18.7960   51.8440 C.3   213  ASP213      0.1674
    153  C         42.8110   20.1430   51.1420 C.2   213  ASP213      0.2266
    154  O         41.9340   20.6070   50.4180 O.2   213  ASP213     -0.2867
    155  CB        42.3120   18.9530   53.3210 C.3   213  ASP213      0.1410
    156  CG        41.8040   17.6630   53.9580 C.2   213  ASP213      0.3668
    157  OD1       41.3540   16.7160   53.2780 O.co2 213  ASP213     -0.2456
    158  OD2       41.8510   17.5730   55.2030 O.co2 213  ASP213     -0.2456
    159  N         42.7870   19.8520   47.2800 N.3   216  LEU216     -0.1231
    160  CA        41.4350   19.6240   46.7740 C.3   216  LEU216      0.1693
    161  C         40.5990   20.9040   46.7620 C.2   216  LEU216      0.2591
    162  O         39.8450   21.2000   45.8330 O.2   216  LEU216     -0.2718
    163  CB        40.7280   18.6150   47.6940 C.3   216  LEU216      0.0284
    164  CG        39.2370   18.3790   47.5050 C.3   216  LEU216      0.0019
    165  CD1       38.9220   18.1030   46.0360 C.3   216  LEU216      0.0001
    166  CD2       38.7910   17.1830   48.3590 C.3   216  LEU216      0.0001
    167  N         40.5840   21.6300   47.8940 N.am  217  ILE217     -0.1980
    168  CA        39.7740   22.8480   47.9910 C.3   217  ILE217      0.1595
    169  C         40.2580   23.8850   46.9820 C.2   217  ILE217      0.2287
    170  O         39.4560   24.5730   46.3220 O.2   217  ILE217     -0.2864
    171  CB        39.7240   23.4260   49.4220 C.3   217  ILE217      0.0276
    172  CG1       39.1120   22.3860   50.3790 C.3   217  ILE217      0.0022
    173  CG2       38.8210   24.6840   49.4520 C.3   217  ILE217      0.0022
    174  CD1       39.3730   22.7370   51.8510 C.3   217  ILE217      0.0001
    175  N         38.6630   23.1160   43.8690 N.3   220  LEU220     -0.1245
    176  CA        37.2380   23.3940   43.9050 C.3   220  LEU220      0.1561
    177  C         37.0190   24.8960   43.6430 C.2   220  LEU220      0.2260
    178  O         36.0610   25.2620   42.9570 O.2   220  LEU220     -0.2867
    179  CB        36.5920   22.9970   45.2600 C.3   220  LEU220      0.0270
    180  CG        36.5060   21.4640   45.4940 C.3   220  LEU220      0.0019
    181  CD1       35.7890   21.1100   46.8020 C.3   220  LEU220      0.0001
    182  CD2       35.8370   20.7090   44.3320 C.3   220  LEU220      0.0001
    183  N         37.4690   25.4360   40.0390 N.3   223  ASP223     -0.1225
    184  CA        36.3750   24.9090   39.2330 C.3   223  ASP223      0.1805
    185  C         35.1570   25.8130   39.3610 C.2   223  ASP223      0.2597
    186  O         34.3790   25.8800   38.3920 O.2   223  ASP223     -0.2718
    187  CB        36.0400   23.4600   39.6080 C.3   223  ASP223      0.1424
    188  CG        37.1980   22.5250   39.2840 C.2   223  ASP223      0.3668
    189  OD1       38.1310   22.8140   38.5030 O.co2 223  ASP223     -0.2456
    190  OD2       37.1830   21.4440   39.8880 O.co2 223  ASP223     -0.2456
    191  N         34.9460   26.4370   40.5360 N.am  224  ASN224     -0.1974
    192  CA        33.7970   27.3360   40.6470 C.3   224  ASN224      0.1688
    193  C         34.0120   28.5390   39.7290 C.2   224  ASN224      0.2292
    194  O         33.0890   28.9420   39.0100 O.2   224  ASN224     -0.2864
    195  CB        33.4840   27.8350   42.0610 C.3   224  ASN224      0.1181
    196  CG        32.6740   26.8090   42.8690 C.2   224  ASN224      0.2629
    197  OD1       32.1280   25.7990   42.4040 O.2   224  ASN224     -0.2716
    198  ND2       32.5420   27.0350   44.1650 N.am  224  ASN224     -0.0877
    199  N         33.2450   27.4780   36.2190 N.3   227  LEU227     -0.1231
    200  CA        31.7980   27.4050   36.0980 C.3   227  LEU227      0.1693
    201  C         31.0730   28.7340   36.0450 C.2   227  LEU227      0.2592
    202  O         30.1820   28.9710   35.2100 O.2   227  LEU227     -0.2718
    203  CB        31.3220   26.5870   37.3090 C.3   227  LEU227      0.0284
    204  CG        29.8400   26.4310   37.5820 C.3   227  LEU227      0.0019
    205  CD1       29.1010   25.8360   36.3880 C.3   227  LEU227      0.0001
    206  CD2       29.6800   25.5460   38.8170 C.3   227  LEU227      0.0001
    207  N         31.4190   29.6730   36.9150 N.am  228  TRP228     -0.1976
    208  CA        30.7610   30.9610   37.0730 C.3   228  TRP228      0.1640
    209  C         31.2400   32.0140   36.0740 C.2   228  TRP228      0.2290
    210  O         30.8130   33.1640   36.1260 O.2   228  TRP228     -0.2864
    211  CB        31.1080   31.4940   38.4740 C.3   228  TRP228      0.0576
    212  CG        30.5870   30.7150   39.6540 C.ar  228  TRP228      0.0006
    213  CD1       29.5590   29.8170   39.6470 C.ar  228  TRP228      0.0946
    214  CD2       31.0470   30.7850   41.0140 C.ar  228  TRP228      0.0152
    215  NE1       29.3650   29.2900   40.9020 N.ar  228  TRP228     -0.2442
    216  CE2       30.2640   29.8730   41.7620 C.ar  228  TRP228      0.0810
    217  CE3       32.0640   31.4810   41.6670 C.ar  228  TRP228      0.0012
    218  CZ2       30.4480   29.6820   43.1240 C.ar  228  TRP228      0.0191
    219  CZ3       32.2600   31.2530   43.0420 C.ar  228  TRP228      0.0001
    220  CH2       31.4320   30.3910   43.7540 C.ar  228  TRP228      0.0015
@<TRIPOS>BOND
     1   202   201    2
     2   201   200    1
     3   201   207   am
     4   209   210    2
     5   209   208    1
     6   200   199    1
     7   200   203    1
     8   205   204    1
     9   207   208    1
    10   208   211    1
    11   203   204    1
    12   204   206    1
    13   141   140    1
    14   186   185    2
    15   211   212    1
    16   189   188   ar
    17   194   193    2
    18   184   185    1
    19   184   187    1
    20   184   183    1
    21   188   187    1
    22   188   190   ar
    23   185   191   am
    24   140   138   ar
    25   140   139   ar
    26   138   136   ar
    27   213   212   ar
    28   213   215   ar
    29   212   214   ar
    30   193   192    1
    31   191   192    1
    32   139   137   ar
    33   192   195    1
    34   136   135   ar
    35   215   216   ar
    36   214   217   ar
    37   214   216   ar
    38   217   219   ar
    39   216   218   ar
    40   137   135   ar
    41   135   134    1
    42   195   196    1
    43    37    36    2
    44   197   196    2
    45   196   198   am
    46   178   177    2
    47   219   220   ar
    48   149   148   ar
    49   218   220   ar
    50   133   132    2
    51    36    35    1
    52   134   131    1
    53   177   176    1
    54   175   176    1
    55   176   179    1
    56   131   132    1
    57   131   130    1
    58   132   142   am
    59   150   148   ar
    60    38    35    1
    61    38    39    1
    62   148   147    1
    63    35    34    1
    64   182   180    1
    65    40    39    1
    66    40    41    1
    67   143   142    1
    68   143   146    1
    69   143   144    1
    70   179   180    1
    71   145   144    2
    72   146   147    1
    73   180   181    1
    74    43    42    1
    75    41    42    2
    76   162   161    2
    77   165   164    1
    78    42    44    1
    79   170   169    2
    80   113   112    1
    81   129   127    1
    82   161   160    1
    83   161   167   am
    84   160   159    1
    85   160   163    1
    86   126   125    2
    87   124   123    1
    88   124   127    1
    89   124   125    1
    90   169   168    1
    91   128   127    1
    92   164   163    1
    93   164   166    1
    94    26    25    2
    95   167   168    1
    96   168   171    1
    97   112   114    1
    98   112   111    1
    99   110   109    2
   100    25    24    1
   101   108   111    1
   102   108   109    1
   103   108   107    1
   104    33    31    1
   105   109   115   am
   106   171   173    1
   107   171   172    1
   108    24    27    1
   109    24    23    1
   110    31    32    1
   111    31    30    2
   112    27    28    1
   113    82    81    1
   114   172   174    1
   115   154   153    2
   116    30    29    1
   117   118   117    2
   118   115   116    1
   119   116   117    1
   120   116   119    1
   121    79    80    1
   122    79    78    1
   123   121   120    2
   124    81    80    2
   125    81    83    1
   126   153   152    1
   127    28    29    1
   128    78    77    1
   129   151   152    1
   130    22    21    1
   131   152   155    1
   132   120   119    1
   133   120   122   am
   134    76    75    2
   135   106   105    2
   136    92    90   ar
   137    92    94   ar
   138    21    20    1
   139   104   103    1
   140   104   105    1
   141    90    89   ar
   142    87    86    2
   143    77    74    1
   144   157   156   ar
   145    75    74    1
   146    75    84   am
   147   155   156    1
   148    95    94    1
   149    85    86    1
   150    85    84    1
   151    85    88    1
   152    94    93   ar
   153    74    73    1
   154    89    88    1
   155    89    91   ar
   156   156   158   ar
   157    20    19    1
   158    19    18    1
   159    17    16    2
   160    99    98    2
   161    71    70   ar
   162    97   100    1
   163    97    98    1
   164    97    96    1
   165    93    91   ar
   166   100   101    2
   167    63    64    1
   168    63    62    1
   169    68    67    2
   170    96   102    2
   171    16    15    1
   172    70    72   ar
   173    70    69    1
   174   101   102    1
   175    18    15    1
   176    66    69    1
   177    66    67    1
   178    66    65    1
   179    15    14    1
   180    62    61    1
   181    61    60    1
   182    10     9    2
   183    12    11    1
   184    13    11    1
   185    59    58    2
   186    60    57    1
   187     8    11    1
   188     8     9    1
   189     8     7    1
   190     4     3    2
   191    58    57    1
   192    57    56    1
   193     6     5    1
   194     7     3   am
   195     3     2    1
   196     5     2    1
   197    54    52   ar
   198    54    55   ar
   199     2     1    1
   200    52    50   ar
   201    48    47    2
   202    55    53   ar
   203    46    47    1
   204    46    45    1
   205    46    49    1
   206    50    49    1
   207    50    51   ar
   208    53    51   ar
