@<TRIPOS>MOLECULE
tmp/1qjdA05.pdb
 109 101 0 0 0
SMALL
GASTEIGER

@<TRIPOS>ATOM
      1  N         32.1630   35.6700   69.2750 N.3   168  ALA168     -0.1231
      2  CA        32.2770   34.5460   70.2060 C.3   168  ALA168      0.1694
      3  C         33.2460   34.8640   71.3290 C.2   168  ALA168      0.2592
      4  O         34.2580   35.5240   71.0640 O.2   168  ALA168     -0.2718
      5  CB        32.6820   33.3030   69.4300 C.3   168  ALA168      0.0304
      6  N         32.9490   34.4260   72.5540 N.am  169  ALA169     -0.1966
      7  CA        33.7990   34.7910   73.6910 C.3   169  ALA169      0.1728
      8  C         34.4130   33.5840   74.3970 C.2   169  ALA169      0.2617
      9  O         35.6380   33.3860   74.3690 O.2   169  ALA169     -0.2715
     10  CB        32.9860   35.6220   74.6730 C.3   169  ALA169      0.0334
     11  N         33.5680   32.7830   75.0310 N.am  170  GLY170     -0.1940
     12  CA        33.8720   31.7380   75.9660 C.3   170  GLY170      0.2014
     13  C         34.7730   30.6290   75.4820 C.2   170  GLY170      0.2639
     14  O         35.5210   30.0460   76.2750 O.2   170  GLY170     -0.2714
     15  N         34.7240   30.2900   74.1930 N.am  171  GLY171     -0.1954
     16  CA        35.6330   29.3440   73.6110 C.3   171  GLY171      0.1869
     17  C         35.0350   28.2970   72.6860 C.2   171  GLY171      0.2309
     18  O         33.8410   28.2740   72.3930 O.2   171  GLY171     -0.2863
     19  N         32.5810   25.6350   80.7950 N.3   236  MET236     -0.1245
     20  CA        31.3190   26.2830   80.4280 C.3   236  MET236      0.1570
     21  C         30.1940   25.4560   81.0240 C.2   236  MET236      0.2261
     22  O         30.4380   24.3550   81.5110 O.2   236  MET236     -0.2867
     23  CB        31.2140   26.4350   78.9150 C.3   236  MET236      0.0387
     24  CG        32.3460   27.2990   78.3530 C.3   236  MET236      0.0595
     25  SD        31.9640   29.0590   78.5360 S.3   236  MET236     -0.1393
     26  CE        30.8480   29.2340   77.1280 C.3   236  MET236      0.0692
     27  N         20.5480   32.8770   75.7390 N.3   365  HIS365     -0.1241
     28  CA        21.7240   32.9910   76.6100 C.3   365  HIS365      0.1621
     29  C         21.2330   33.5370   77.9580 C.2   365  HIS365      0.2264
     30  O         20.4620   34.4940   77.9640 O.2   365  HIS365     -0.2867
     31  CB        22.7580   33.9210   76.0110 C.3   365  HIS365      0.0745
     32  CG        24.1090   33.8320   76.6350 C.ar  365  HIS365      0.0817
     33  ND1       24.3900   34.2660   77.9200 N.ar  365  HIS365     -0.2268
     34  CD2       25.2590   33.3280   76.1320 C.ar  365  HIS365      0.1154
     35  CE1       25.6670   34.0450   78.1650 C.ar  365  HIS365      0.1986
     36  NE2       26.2220   33.4720   77.1020 N.ar  365  HIS365     -0.2212
     37  N         25.8380   40.3510   75.0020 N.3   375  MET375     -0.1245
     38  CA        26.0940   39.1090   75.7140 C.3   375  MET375      0.1570
     39  C         27.2500   39.2620   76.6960 C.2   375  MET375      0.2261
     40  O         28.2690   39.8370   76.3140 O.2   375  MET375     -0.2867
     41  CB        26.4170   38.0070   74.6990 C.3   375  MET375      0.0387
     42  CG        26.4240   36.6070   75.2960 C.3   375  MET375      0.0595
     43  SD        28.0690   36.2230   75.9680 S.3   375  MET375     -0.1393
     44  CE        29.0510   36.3390   74.4740 C.3   375  MET375      0.0692
     45  N         29.8360   36.7640   78.6310 N.3   377  THR377     -0.1203
     46  CA        30.1720   35.3580   78.4940 C.3   377  THR377      0.1994
     47  C         29.9650   34.5240   79.7540 C.2   377  THR377      0.2617
     48  O         30.1780   34.8540   80.9240 O.2   377  THR377     -0.2717
     49  CB        31.6330   35.1830   78.0100 C.3   377  THR377      0.1784
     50  OG1       31.9040   33.7770   77.8860 O.3   377  THR377     -0.2211
     51  CG2       32.6520   35.7530   78.9820 C.3   377  THR377      0.0376
     52  N         29.4950   33.3210   79.4540 N.am  378  GLU378     -0.1979
     53  CA        29.3240   32.2230   80.3920 C.3   378  GLU378      0.1602
     54  C         30.6650   31.8810   81.0290 C.2   378  GLU378      0.2287
     55  O         30.7200   31.3350   82.1230 O.2   378  GLU378     -0.2864
     56  CB        28.7240   31.0350   79.6410 C.3   378  GLU378      0.0415
     57  CG        28.4850   29.7690   80.4420 C.3   378  GLU378      0.1163
     58  CD        27.3300   28.9540   79.8650 C.2   378  GLU378      0.3649
     59  OE1       26.2600   29.5590   79.6440 O.co2 378  GLU378     -0.2457
     60  OE2       27.4980   27.7350   79.6470 O.co2 378  GLU378     -0.2457
     61  N         21.7950   26.0740   79.8720 N.3   402  ARG402     -0.1245
     62  CA        21.2580   27.4140   79.6660 C.3   402  ARG402      0.1563
     63  C         19.7430   27.4810   79.7830 C.2   402  ARG402      0.2260
     64  O         19.2080   28.5420   80.0940 O.2   402  ARG402     -0.2867
     65  CB        21.6800   27.9530   78.2850 C.3   402  ARG402      0.0307
     66  CG        23.1400   28.3540   78.2950 C.3   402  ARG402      0.0489
     67  CD        23.6700   28.8200   76.9580 C.3   402  ARG402      0.2205
     68  NE        25.0300   29.2960   77.1060 N.pl3 402  ARG402     -0.0865
     69  CZ        25.8750   29.5230   76.1100 C.cat 402  ARG402      0.5346
     70  NH1       25.5500   29.3260   74.8400 N.pl3 402  ARG402      0.1354
     71  NH2       27.0880   29.9630   76.4260 N.pl3 402  ARG402      0.1354
     72  N         19.6840   33.8490   71.5790 N.3   504  HIS504     -0.1241
     73  CA        21.1000   33.7390   71.2220 C.3   504  HIS504      0.1621
     74  C         21.4340   32.8480   70.0430 C.2   504  HIS504      0.2264
     75  O         22.2970   33.2020   69.2320 O.2   504  HIS504     -0.2867
     76  CB        21.7990   33.1370   72.4600 C.3   504  HIS504      0.0745
     77  CG        23.2950   33.0960   72.4110 C.ar  504  HIS504      0.0817
     78  ND1       24.1040   34.1770   72.2010 N.ar  504  HIS504     -0.2268
     79  CD2       24.1290   32.0430   72.6090 C.ar  504  HIS504      0.1154
     80  CE1       25.3790   33.8020   72.2450 C.ar  504  HIS504      0.1986
     81  NE2       25.4240   32.5050   72.4860 N.ar  504  HIS504     -0.2212
     82  N         21.7970   23.6930   73.3660 N.3   544  ARG544     -0.1245
     83  CA        23.2000   23.6420   73.0130 C.3   544  ARG544      0.1563
     84  C         24.1320   23.9710   74.1750 C.2   544  ARG544      0.2260
     85  O         23.8320   24.8900   74.9320 O.2   544  ARG544     -0.2867
     86  CB        23.4880   24.6640   71.8990 C.3   544  ARG544      0.0307
     87  CG        24.9850   24.6550   71.5740 C.3   544  ARG544      0.0489
     88  CD        25.2060   25.4550   70.3010 C.3   544  ARG544      0.2205
     89  NE        25.0960   26.8910   70.4380 N.pl3 544  ARG544     -0.0865
     90  CZ        25.9190   27.6840   71.1190 C.cat 544  ARG544      0.5346
     91  NH1       26.9580   27.1890   71.7760 N.pl3 544  ARG544      0.1354
     92  NH2       25.7000   28.9980   71.1450 N.pl3 544  ARG544      0.1354
     93  N         30.1760   26.6680   73.9610 N.3   547  GLY547     -0.1225
     94  CA        31.4280   26.1720   73.3920 C.3   547  GLY547      0.1811
     95  C         31.2190   25.2040   72.2520 C.2   547  GLY547      0.2280
     96  O         32.1160   24.8380   71.4840 O.2   547  GLY547     -0.2866
     97  N         29.1670   25.5170   69.5860 N.3   549  ALA549     -0.1231
     98  CA        28.8210   26.0780   68.2670 C.3   549  ALA549      0.1694
     99  C         30.0630   26.4280   67.4830 C.2   549  ALA549      0.2591
    100  O         30.1710   26.1860   66.2720 O.2   549  ALA549     -0.2718
    101  CB        27.9110   27.2830   68.4560 C.3   549  ALA549      0.0304
    102  N         31.0740   26.9900   68.1430 N.am  550  ILE550     -0.1980
    103  CA        32.3270   27.2120   67.3970 C.3   550  ILE550      0.1595
    104  C         32.9670   25.8940   66.9940 C.2   550  ILE550      0.2287
    105  O         33.5160   25.7410   65.8870 O.2   550  ILE550     -0.2864
    106  CB        33.2760   28.1190   68.2040 C.3   550  ILE550      0.0276
    107  CG1       32.7220   29.5200   68.4130 C.3   550  ILE550      0.0022
    108  CG2       34.6660   28.1600   67.5820 C.3   550  ILE550      0.0022
    109  CD1       32.5270   30.3590   67.1750 C.3   550  ILE550      0.0001
@<TRIPOS>BOND
     1   105   104    2
     2   100    99    2
     3   104   103    1
     4   109   107    1
     5   103   102    1
     6   103   106    1
     7    99   102   am
     8    99    98    1
     9   108   106    1
    10   106   107    1
    11    98   101    1
    12    98    97    1
    13    75    74    2
    14     1     2    1
    15     5     2    1
    16    74    73    1
    17     2     3    1
    18    88    89    1
    19    88    87    1
    20    89    90    2
    21     4     3    2
    22    90    92    1
    23    90    91    1
    24    73    72    1
    25    73    76    1
    26     3     6   am
    27    96    95    2
    28    87    86    1
    29    86    83    1
    30    78    80   ar
    31    78    77   ar
    32    80    81   ar
    33    95    94    1
    34    18    17    2
    35    77    76    1
    36    77    79   ar
    37    81    79   ar
    38     6     7    1
    39    17    16    1
    40    83    82    1
    41    83    84    1
    42    94    93    1
    43    16    15    1
    44     7     8    1
    45     7    10    1
    46    84    85    2
    47    15    13   am
    48     9     8    2
    49     8    11   am
    50    44    43    1
    51    41    42    1
    52    41    38    1
    53    70    69    1
    54    37    38    1
    55    11    12    1
    56    42    43    1
    57    13    12    1
    58    13    14    2
    59    38    39    1
    60    27    28    1
    61    31    28    1
    62    31    32    1
    63    69    71    1
    64    69    68    2
    65    34    32   ar
    66    34    36   ar
    67    40    39    2
    68    28    29    1
    69    32    33   ar
    70    67    68    1
    71    67    66    1
    72    36    35   ar
    73    26    25    1
    74    50    49    1
    75    33    35   ar
    76    29    30    2
    77    49    46    1
    78    49    51    1
    79    65    66    1
    80    65    62    1
    81    24    25    1
    82    24    23    1
    83    46    45    1
    84    46    47    1
    85    23    20    1
    86    52    47   am
    87    52    53    1
    88    56    53    1
    89    56    57    1
    90    59    58   ar
    91    60    58   ar
    92    62    63    1
    93    62    61    1
    94    47    48    2
    95    63    64    2
    96    58    57    1
    97    53    54    1
    98    20    19    1
    99    20    21    1
   100    21    22    2
   101    54    55    2
