@<TRIPOS>MOLECULE
tmp/1qjeA00.pdb
 220 202 0 0 0
SMALL
GASTEIGER

@<TRIPOS>ATOM
      1  N         21.0260   35.8630   10.7800 N.3    83  ARG83      -0.1245
      2  CA        20.0220   35.4060    9.8240 C.3    83  ARG83       0.1563
      3  C         19.3760   34.0980   10.1690 C.2    83  ARG83       0.2260
      4  O         18.1550   33.9330   10.0980 O.2    83  ARG83      -0.2867
      5  CB        20.6280   35.2220    8.3990 C.3    83  ARG83       0.0307
      6  CG        21.2240   36.4720    7.7940 C.3    83  ARG83       0.0489
      7  CD        21.8370   36.2570    6.4260 C.3    83  ARG83       0.2205
      8  NE        20.8330   35.9650    5.4080 N.pl3  83  ARG83      -0.0865
      9  CZ        21.0780   35.4360    4.2200 C.cat  83  ARG83       0.5346
     10  NH1       22.2820   35.0560    3.8080 N.pl3  83  ARG83       0.1354
     11  NH2       20.0770   35.2270    3.3610 N.pl3  83  ARG83       0.1354
     12  N         13.0790   32.8860   15.1940 N.3    87  TYR87      -0.1241
     13  CA        12.5730   34.2540   15.3870 C.3    87  TYR87       0.1605
     14  C         11.3030   34.0990   16.2090 C.2    87  TYR87       0.2264
     15  O         10.2980   33.6400   15.7000 O.2    87  TYR87      -0.2867
     16  CB        12.2930   34.9440   14.0760 C.3    87  TYR87       0.0534
     17  CG        13.4060   35.2020   13.1020 C.ar   87  TYR87      -0.0201
     18  CD1       14.3300   34.2220   12.7600 C.ar   87  TYR87      -0.0009
     19  CD2       13.5660   36.4310   12.4840 C.ar   87  TYR87      -0.0009
     20  CE1       15.3690   34.4310   11.8590 C.ar   87  TYR87       0.0417
     21  CE2       14.5750   36.6600   11.5770 C.ar   87  TYR87       0.0417
     22  CZ        15.4770   35.6730   11.2660 C.ar   87  TYR87       0.1957
     23  OH        16.4650   35.9390   10.3650 O.3    87  TYR87      -0.2866
     24  N          3.6200   36.6630   14.8680 N.3    96  VAL96      -0.1245
     25  CA         4.3990   35.8270   13.9630 C.3    96  VAL96       0.1561
     26  C          5.6500   35.2870   14.6190 C.2    96  VAL96       0.2260
     27  O          6.3050   35.8550   15.4920 O.2    96  VAL96      -0.2867
     28  CB         4.7540   36.6600   12.7490 C.3    96  VAL96       0.0252
     29  CG1        5.7520   37.7630   13.0140 C.3    96  VAL96       0.0019
     30  CG2        5.3070   35.9040   11.5630 C.3    96  VAL96       0.0019
     31  N         14.5050   30.4010   10.0440 N.3   100  CYS100     -0.1235
     32  CA        15.2350   30.6740    8.8090 C.3   100  CYS100      0.1677
     33  C         16.4710   29.7710    8.7050 C.2   100  CYS100      0.2270
     34  O         17.2160   29.5760    9.7010 O.2   100  CYS100     -0.2867
     35  CB        15.6630   32.1330    8.7790 C.3   100  CYS100      0.0956
     36  SG        16.7320   32.6490    7.4420 S.3   100  CYS100     -0.0801
     37  N         17.8970   32.0750    1.1040 N.3   179  SER179     -0.1217
     38  CA        17.3660   31.5960    2.3700 C.3   179  SER179      0.1889
     39  C         15.9530   31.0670    2.2350 C.2   179  SER179      0.2288
     40  O         15.2070   31.4920    1.3470 O.2   179  SER179     -0.2866
     41  CB        17.3580   32.7720    3.3660 C.3   179  SER179      0.2089
     42  OG        16.4840   33.7870    2.9300 O.3   179  SER179     -0.2183
     43  N         12.6000   30.6980    4.6900 N.3   181  VAL181     -0.1245
     44  CA        11.9880   31.1230    5.9740 C.3   181  VAL181      0.1561
     45  C         10.6760   30.3440    6.0880 C.2   181  VAL181      0.2260
     46  O          9.7990   30.3900    5.2480 O.2   181  VAL181     -0.2867
     47  CB        11.7760   32.6200    6.1270 C.3   181  VAL181      0.0252
     48  CG1       11.3830   32.9730    7.5760 C.3   181  VAL181      0.0019
     49  CG2       13.0310   33.3600    5.7520 C.3   181  VAL181      0.0019
     50  N          7.5720   30.5410    8.0510 N.3   183  ILE183     -0.1245
     51  CA         6.8500   31.4870    8.9260 C.3   183  ILE183      0.1561
     52  C          5.5110   30.9130    9.3520 C.2   183  ILE183      0.2260
     53  O          4.7470   30.3960    8.5120 O.2   183  ILE183     -0.2867
     54  CB         6.6000   32.8080    8.1950 C.3   183  ILE183      0.0252
     55  CG1        7.8380   33.4260    7.5460 C.3   183  ILE183      0.0019
     56  CG2        5.9290   33.8260    9.0810 C.3   183  ILE183      0.0019
     57  CD1        7.5430   34.5560    6.5820 C.3   183  ILE183      0.0001
     58  N          2.0380   32.0110   11.0270 N.3   185  TYR185     -0.1241
     59  CA         1.0860   33.0490   11.4050 C.3   185  TYR185      0.1605
     60  C         -0.0090   32.3430   12.1630 C.2   185  TYR185      0.2264
     61  O         -0.7090   31.5250   11.6280 O.2   185  TYR185     -0.2867
     62  CB         0.5590   33.7790   10.1920 C.3   185  TYR185      0.0534
     63  CG         1.3980   34.8770    9.5920 C.ar  185  TYR185     -0.0201
     64  CD1        1.3300   36.1310   10.1570 C.ar  185  TYR185     -0.0009
     65  CD2        2.2440   34.6890    8.4800 C.ar  185  TYR185     -0.0009
     66  CE1        2.0230   37.2190    9.7260 C.ar  185  TYR185      0.0417
     67  CE2        2.9540   35.7840    8.0120 C.ar  185  TYR185      0.0417
     68  CZ         2.8230   37.0070    8.6490 C.ar  185  TYR185      0.1957
     69  OH         3.5540   38.1370    8.1820 O.3   185  TYR185     -0.2866
     70  N          2.1490   42.9720    8.3370 N.3   207  PHE207     -0.1241
     71  CA         3.4750   43.4720    7.9120 C.3   207  PHE207      0.1605
     72  C          3.1810   44.5690    6.9260 C.2   207  PHE207      0.2264
     73  O          2.3940   44.4060    6.0320 O.2   207  PHE207     -0.2867
     74  CB         4.3400   42.3750    7.2910 C.3   207  PHE207      0.0534
     75  CG         5.8330   42.5890    7.1880 C.ar  207  PHE207     -0.0203
     76  CD1        6.6410   42.7140    8.3090 C.ar  207  PHE207     -0.0042
     77  CD2        6.4500   42.6690    5.9530 C.ar  207  PHE207     -0.0042
     78  CE1        8.0380   42.9010    8.1100 C.ar  207  PHE207     -0.0003
     79  CE2        7.8200   42.8480    5.7900 C.ar  207  PHE207     -0.0003
     80  CZ         8.6410   42.9670    6.8920 C.ar  207  PHE207     -0.0000
     81  N          6.5060   46.9660    1.6800 N.3   210  HIS210     -0.1241
     82  CA         7.9440   46.7590    1.4540 C.3   210  HIS210      0.1621
     83  C          8.2100   46.2550    0.0270 C.2   210  HIS210      0.2264
     84  O          7.2740   45.8000   -0.6080 O.2   210  HIS210     -0.2867
     85  CB         8.5280   45.7240    2.4480 C.3   210  HIS210      0.0745
     86  CG         7.9810   44.3720    2.2910 C.ar  210  HIS210      0.0817
     87  ND1        6.7030   44.0450    2.7140 N.ar  210  HIS210     -0.2268
     88  CD2        8.5370   43.2710    1.7130 C.ar  210  HIS210      0.1154
     89  CE1        6.5570   42.7830    2.4110 C.ar  210  HIS210      0.1986
     90  NE2        7.6160   42.2440    1.8050 N.ar  210  HIS210     -0.2212
     91  N         10.8890   43.3790   -1.5950 N.3   212  ASP212     -0.1225
     92  CA        11.7210   42.2950   -1.1030 C.3   212  ASP212      0.1805
     93  C         13.2060   42.5410   -1.3240 C.2   212  ASP212      0.2597
     94  O         13.5840   43.1350   -2.3520 O.2   212  ASP212     -0.2718
     95  CB        11.3780   40.9860   -1.8240 C.3   212  ASP212      0.1424
     96  CG        10.0730   40.3950   -1.3600 C.2   212  ASP212      0.3668
     97  OD1        9.5100   40.7740   -0.3280 O.co2 212  ASP212     -0.2456
     98  OD2        9.5570   39.4940   -2.0610 O.co2 212  ASP212     -0.2456
     99  N         14.0100   42.0600   -0.4100 N.am  213  VAL213     -0.1980
    100  CA        15.4490   42.0100   -0.5400 C.3   213  VAL213      0.1595
    101  C         15.7580   40.6170   -1.0880 C.2   213  VAL213      0.2287
    102  O         15.8240   39.6120   -0.4120 O.2   213  VAL213     -0.2864
    103  CB        16.1570   42.2710    0.7790 C.3   213  VAL213      0.0276
    104  CG1       17.6460   42.2840    0.5740 C.3   213  VAL213      0.0022
    105  CG2       15.6870   43.5850    1.3710 C.3   213  VAL213      0.0022
    106  N         11.6900   36.2790   -5.4750 N.3   217  THR217     -0.1218
    107  CA        11.1510   35.6110   -4.2830 C.3   217  THR217      0.1862
    108  C         10.2110   34.4970   -4.7670 C.2   217  THR217      0.2287
    109  O          9.4020   34.7730   -5.6670 O.2   217  THR217     -0.2866
    110  CB        10.3160   36.5230   -3.4220 C.3   217  THR217      0.1770
    111  OG1       11.1040   37.5420   -2.9080 O.3   217  THR217     -0.2211
    112  CG2        9.8350   35.9140   -2.1470 C.3   217  THR217      0.0375
    113  N          7.5660   31.8980   -3.3600 N.3   219  LEU219     -0.1245
    114  CA         6.8140   31.7800   -2.1320 C.3   219  LEU219      0.1561
    115  C          5.6880   30.7560   -2.1690 C.2   219  LEU219      0.2260
    116  O          4.8750   30.8100   -3.0840 O.2   219  LEU219     -0.2867
    117  CB         6.1990   33.1710   -1.8430 C.3   219  LEU219      0.0270
    118  CG         5.2060   33.2870   -0.6650 C.3   219  LEU219      0.0019
    119  CD1        5.9520   33.0580    0.6600 C.3   219  LEU219      0.0001
    120  CD2        4.6550   34.6940   -0.6750 C.3   219  LEU219      0.0001
    121  N          2.4350   29.7670    0.1280 N.3   221  GLN221     -0.1245
    122  CA         1.5820   30.1780    1.2310 C.3   221  GLN221      0.1566
    123  C          0.3540   29.2580    1.2180 C.2   221  GLN221      0.2260
    124  O         -0.1400   28.7180    0.2320 O.2   221  GLN221     -0.2867
    125  CB         1.0540   31.5890    1.2070 C.3   221  GLN221      0.0367
    126  CG         2.0950   32.7110    1.1240 C.3   221  GLN221      0.0905
    127  CD         1.5630   34.0630    1.5070 C.2   221  GLN221      0.2608
    128  OE1        2.2390   34.7160    2.3780 O.2   221  GLN221     -0.2717
    129  NE2        0.5190   34.3760    0.9100 N.am  221  GLN221     -0.0878
    130  N         -2.0630   38.6900    0.9620 N.3   227  LEU227     -0.1245
    131  CA        -1.2080   39.6660    0.3710 C.3   227  LEU227      0.1561
    132  C         -1.8900   40.6990   -0.5150 C.2   227  LEU227      0.2260
    133  O         -2.8780   40.3920   -1.1570 O.2   227  LEU227     -0.2867
    134  CB        -0.1870   38.8560   -0.4960 C.3   227  LEU227      0.0270
    135  CG         0.7750   37.9040    0.2710 C.3   227  LEU227      0.0019
    136  CD1        1.6260   37.0810   -0.7270 C.3   227  LEU227      0.0001
    137  CD2        1.7050   38.7420    1.1590 C.3   227  LEU227      0.0001
    138  N          4.4240   45.5560   -1.6990 N.3   266  HIS266     -0.1241
    139  CA         3.3900   44.6810   -1.2220 C.3   266  HIS266      0.1621
    140  C          3.3790   44.6590    0.3070 C.2   266  HIS266      0.2264
    141  O          4.3270   45.0920    0.9540 O.2   266  HIS266     -0.2867
    142  CB         3.5380   43.2720   -1.8280 C.3   266  HIS266      0.0745
    143  CG         4.8610   42.6810   -1.6270 C.ar  266  HIS266      0.0817
    144  ND1        6.0370   42.9850   -2.2800 N.ar  266  HIS266     -0.2268
    145  CD2        5.1620   41.6470   -0.7900 C.ar  266  HIS266      0.1154
    146  CE1        7.0180   42.2140   -1.8570 C.ar  266  HIS266      0.1986
    147  NE2        6.5010   41.3970   -0.9160 N.ar  266  HIS266     -0.2212
    148  N          1.1800   42.6290    3.9260 N.3   268  VAL268     -0.1245
    149  CA         0.4860   41.4540    4.4480 C.3   268  VAL268      0.1561
    150  C         -0.6960   41.8700    5.2920 C.2   268  VAL268      0.2260
    151  O         -0.4350   42.5020    6.3520 O.2   268  VAL268     -0.2867
    152  CB         1.4440   40.6010    5.3110 C.3   268  VAL268      0.0252
    153  CG1        0.8260   39.4640    6.0260 C.3   268  VAL268      0.0019
    154  CG2        2.6710   40.1370    4.4250 C.3   268  VAL268      0.0019
    155  N         -1.8620   29.8480    9.6240 N.3   275  ARG275     -0.1245
    156  CA        -1.4030   29.6860    8.2410 C.3   275  ARG275      0.1563
    157  C          0.0850   29.7470    8.1770 C.2   275  ARG275      0.2260
    158  O          0.7890   29.9940    9.1630 O.2   275  ARG275     -0.2867
    159  CB        -2.0910   30.7470    7.3630 C.3   275  ARG275      0.0307
    160  CG        -1.6470   32.1330    7.7010 C.3   275  ARG275      0.0489
    161  CD        -2.4970   33.1860    6.9310 C.3   275  ARG275      0.2205
    162  NE        -1.9140   34.4980    7.2100 N.pl3 275  ARG275     -0.0865
    163  CZ        -0.8580   35.0390    6.5690 C.cat 275  ARG275      0.5346
    164  NH1       -0.2350   34.4180    5.6200 N.pl3 275  ARG275      0.1354
    165  NH2       -0.4190   36.2640    6.9210 N.pl3 275  ARG275      0.1354
    166  N          3.5680   30.8570    5.7070 N.3   277  SER277     -0.1217
    167  CA         4.2140   31.6650    4.6420 C.3   277  SER277      0.1889
    168  C          5.6520   31.1790    4.5120 C.2   277  SER277      0.2288
    169  O          6.3760   31.3350    5.5040 O.2   277  SER277     -0.2866
    170  CB         4.0670   33.1420    4.9630 C.3   277  SER277      0.2089
    171  OG         4.5950   33.8640    3.8580 O.3   277  SER277     -0.2183
    172  N          8.6270   31.6220    2.2270 N.3   279  PRO279     -0.2116
    173  CA         9.4120   32.1740    1.1420 C.3   279  PRO279      0.1372
    174  C         10.7940   31.5410    0.9880 C.2   279  PRO279      0.2244
    175  O         11.4280   31.1590    1.9680 O.2   279  PRO279     -0.2868
    176  CB         9.5900   33.6560    1.5460 C.3   279  PRO279      0.0268
    177  CG         9.5470   33.5850    3.0470 C.3   279  PRO279      0.0207
    178  CD         8.5040   32.5450    3.3740 C.3   279  PRO279      0.0892
    179  N         14.0690   33.2040   -0.6920 N.3   281  PHE281     -0.1241
    180  CA        14.6260   34.4190   -1.2480 C.3   281  PHE281      0.1605
    181  C         15.7960   34.0580   -2.1240 C.2   281  PHE281      0.2264
    182  O         16.8220   33.5690   -1.5980 O.2   281  PHE281     -0.2867
    183  CB        15.0240   35.4030   -0.1190 C.3   281  PHE281      0.0534
    184  CG        13.8110   35.8510    0.6670 C.ar  281  PHE281     -0.0203
    185  CD1       12.8750   36.6900    0.1260 C.ar  281  PHE281     -0.0042
    186  CD2       13.6240   35.4090    1.9910 C.ar  281  PHE281     -0.0042
    187  CE1       11.7610   37.0930    0.8400 C.ar  281  PHE281     -0.0003
    188  CE2       12.5000   35.7980    2.7320 C.ar  281  PHE281     -0.0003
    189  CZ        11.5750   36.6360    2.1650 C.ar  281  PHE281     -0.0000
    190  N         18.8720   34.6890   -3.7200 N.3   283  ASN283     -0.1240
    191  CA        20.0430   35.5520   -3.5890 C.3   283  ASN283      0.1653
    192  C         21.2070   34.9360   -4.3470 C.2   283  ASN283      0.2266
    193  O         21.2710   33.6960   -4.4140 O.2   283  ASN283     -0.2867
    194  CB        20.4100   35.7360   -2.1210 C.3   283  ASN283      0.1155
    195  CG        19.3510   36.4400   -1.3100 C.2   283  ASN283      0.2627
    196  OD1       18.6900   37.3760   -1.8050 O.2   283  ASN283     -0.2716
    197  ND2       19.1540   35.9720   -0.0530 N.am  283  ASN283     -0.0877
    198  N         19.1390   43.8210    4.2660 N.3   317  LEU317     -0.1245
    199  CA        18.4940   43.0980    5.4240 C.3   317  LEU317      0.1561
    200  C         18.3640   44.0300    6.6030 C.2   317  LEU317      0.2260
    201  O         17.3040   44.0470    7.3250 O.2   317  LEU317     -0.2867
    202  CB        19.2220   41.7780    5.7380 C.3   317  LEU317      0.0270
    203  CG        19.0670   40.7370    4.5980 C.3   317  LEU317      0.0019
    204  CD1       19.8990   39.5020    4.8760 C.3   317  LEU317      0.0001
    205  CD2       17.6280   40.3160    4.3360 C.3   317  LEU317      0.0001
    206  N         15.4390   46.7060    6.0620 N.3   320  LEU320     -0.1245
    207  CA        14.0630   46.1780    6.1760 C.3   320  LEU320      0.1561
    208  C         13.7490   45.9880    7.6440 C.2   320  LEU320      0.2260
    209  O         12.5730   46.2760    8.0130 O.2   320  LEU320     -0.2867
    210  CB        13.9800   44.9680    5.2210 C.3   320  LEU320      0.0270
    211  CG        12.5840   44.3560    5.1380 C.3   320  LEU320      0.0019
    212  CD1       11.4430   45.2730    4.8170 C.3   320  LEU320      0.0001
    213  CD2       12.6230   43.0870    4.2620 C.3   320  LEU320      0.0001
    214  N         11.5090   40.7850   12.7220 N.3   327  THR327     -0.1274
    215  CA        10.4750   39.7300   12.6190 C.3   327  THR327      0.1548
    216  C         10.7910   38.5850   13.5820 C.3   327  THR327      0.2036
    217  O          9.9460   37.6180   13.5190 O.3   327  THR327     -0.2187
    218  CB        10.2940   39.1750   11.1940 C.3   327  THR327      0.1721
    219  OG1       11.5960   38.7270   10.6750 O.3   327  THR327     -0.2215
    220  CG2        9.7700   40.2100   10.2030 C.3   327  THR327      0.0371
@<TRIPOS>BOND
     1   109   108    2
     2   106   107    1
     3   108   107    1
     4   193   192    2
     5   192   191    1
     6   107   110    1
     7   190   191    1
     8   191   194    1
     9   110   111    1
    10   110   112    1
    11   113   114    1
    12   116   115    2
    13    94    93    2
    14   144   146   ar
    15   144   143   ar
    16   115   114    1
    17   114   117    1
    18   181   182    2
    19   181   180    1
    20   194   195    1
    21    98    96   ar
    22   146   147   ar
    23   117   118    1
    24   142   143    1
    25   142   139    1
    26    95    96    1
    27    95    92    1
    28   196   195    2
    29   138   139    1
    30   143   145   ar
    31    91    92    1
    32    96    97   ar
    33    93    92    1
    34    93    99   am
    35   195   197   am
    36   180   179    1
    37   180   183    1
    38   139   140    1
    39   133   132    2
    40   101   100    1
    41   101   102    2
    42   147   145   ar
    43   136   135    1
    44   120   118    1
    45   118   119    1
    46    84    83    2
    47   100    99    1
    48   100   103    1
    49   132   131    1
    50   134   135    1
    51   134   131    1
    52   183   184    1
    53    83    82    1
    54   185   184   ar
    55   185   187   ar
    56   121   122    1
    57   124   123    2
    58   135   137    1
    59   140   141    2
    60   131   130    1
    61   104   103    1
    62   184   186   ar
    63   103   105    1
    64   187   189   ar
    65   129   127   am
    66   174   173    1
    67   174   175    2
    68    37    38    1
    69   126   125    1
    70   126   127    1
    71   173   176    1
    72   173   172    1
    73   125   122    1
    74   123   122    1
    75    40    39    2
    76    82    81    1
    77    82    85    1
    78   127   128    2
    79   176   177    1
    80    88    90   ar
    81    88    86   ar
    82    90    89   ar
    83   186   188   ar
    84   189   188   ar
    85   172   178    1
    86    39    38    1
    87    86    85    1
    88    86    87   ar
    89    38    41    1
    90    89    87   ar
    91    42    41    1
    92   177   178    1
    93    11     9    1
    94    10     9    1
    95   171   170    1
    96   148   149    1
    97     9     8    2
    98   213   211    1
    99   198   199    1
   100   205   203    1
   101   154   152    1
   102   149   150    1
   103   149   152    1
   104   168   167    1
   105   168   169    2
   106   203   204    1
   107   203   202    1
   108   167   170    1
   109   167   166    1
   110    43    44    1
   111   212   211    1
   112   211   210    1
   113   210   207    1
   114    46    45    2
   115   150   151    2
   116   152   153    1
   117     8     7    1
   118   199   202    1
   119   199   200    1
   120   164   163    1
   121    49    47    1
   122    79    77   ar
   123    79    80   ar
   124    77    75   ar
   125    44    45    1
   126    44    47    1
   127    73    72    2
   128   206   207    1
   129    47    48    1
   130   207   208    1
   131     7     6    1
   132   163   165    1
   133   163   162    2
   134    57    55    1
   135   200   201    2
   136    80    78   ar
   137    72    71    1
   138   161   162    1
   139   161   160    1
   140    75    74    1
   141    75    76   ar
   142    74    71    1
   143   159   160    1
   144   159   156    1
   145    36    35    1
   146    55    54    1
   147   208   209    2
   148     6     5    1
   149    71    70    1
   150    67    65   ar
   151    67    68   ar
   152    50    51    1
   153    78    76   ar
   154   157   156    1
   155   157   158    2
   156    69    68    1
   157    54    51    1
   158    54    56    1
   159   156   155    1
   160     5     2    1
   161    65    63   ar
   162    53    52    2
   163    68    66   ar
   164    33    32    1
   165    33    34    2
   166    35    32    1
   167    32    31    1
   168    51    52    1
   169    63    64   ar
   170    63    62    1
   171    66    64   ar
   172     2     3    1
   173     2     1    1
   174     4     3    2
   175    62    59    1
   176   220   218    1
   177    23    22    1
   178   219   218    1
   179    58    59    1
   180   218   215    1
   181    22    21   ar
   182    22    20   ar
   183    59    60    1
   184    30    28    1
   185    21    19   ar
   186    61    60    2
   187    20    18   ar
   188    19    17   ar
   189   215   214    1
   190   215   216    1
   191    28    29    1
   192    28    25    1
   193    18    17   ar
   194    17    16    1
   195   217   216    1
   196    25    26    1
   197    25    24    1
   198    16    13    1
   199    26    27    2
   200    12    13    1
   201    13    14    1
   202    15    14    2
