@<TRIPOS>MOLECULE
tmp/1qjfA00.pdb
 221 204 0 0 0
SMALL
GASTEIGER

@<TRIPOS>ATOM
      1  N          3.4620   40.3140  -10.0890 N.3    38  PHE38      -0.1241
      2  CA         3.2770   38.9730   -9.5250 C.3    38  PHE38       0.1605
      3  C          2.7440   38.0040  -10.5840 C.2    38  PHE38       0.2264
      4  O          1.9540   38.4700  -11.4050 O.2    38  PHE38      -0.2867
      5  CB         2.3330   39.0430   -8.3290 C.3    38  PHE38       0.0534
      6  CG         2.9000   39.7230   -7.0830 C.ar   38  PHE38      -0.0203
      7  CD1        2.8580   41.1010   -6.8910 C.ar   38  PHE38      -0.0042
      8  CD2        3.4810   38.9120   -6.1380 C.ar   38  PHE38      -0.0042
      9  CE1        3.4060   41.6560   -5.7450 C.ar   38  PHE38      -0.0003
     10  CE2        4.0210   39.4050   -4.9700 C.ar   38  PHE38      -0.0003
     11  CZ         3.9710   40.8020   -4.8040 C.ar   38  PHE38      -0.0000
     12  N         21.0940   35.9840   10.8830 N.3    84  ARG84      -0.1245
     13  CA        20.1150   35.5340    9.9070 C.3    84  ARG84       0.1563
     14  C         19.4910   34.2020   10.2510 C.2    84  ARG84       0.2260
     15  O         18.2340   34.1170   10.1960 O.2    84  ARG84      -0.2867
     16  CB        20.6930   35.3450    8.4850 C.3    84  ARG84       0.0307
     17  CG        21.1870   36.6370    7.8240 C.3    84  ARG84       0.0489
     18  CD        21.8900   36.3590    6.4810 C.3    84  ARG84       0.2205
     19  NE        20.8960   36.0810    5.4470 N.pl3  84  ARG84      -0.0865
     20  CZ        21.1200   35.5110    4.2760 C.cat  84  ARG84       0.5346
     21  NH1       22.2920   35.1230    3.8890 N.pl3  84  ARG84       0.1354
     22  NH2       20.1240   35.3210    3.4410 N.pl3  84  ARG84       0.1354
     23  N         13.1500   32.9740   15.3020 N.3    88  TYR88      -0.1241
     24  CA        12.6580   34.3260   15.4730 C.3    88  TYR88       0.1605
     25  C         11.3920   34.2270   16.3540 C.2    88  TYR88       0.2264
     26  O         10.3420   33.7700   15.8240 O.2    88  TYR88      -0.2867
     27  CB        12.3170   35.0470   14.1500 C.3    88  TYR88       0.0534
     28  CG        13.4400   35.2750   13.1740 C.ar   88  TYR88      -0.0201
     29  CD1       14.3690   34.2650   12.8860 C.ar   88  TYR88      -0.0009
     30  CD2       13.6100   36.4760   12.5060 C.ar   88  TYR88      -0.0009
     31  CE1       15.4060   34.4930   11.9700 C.ar   88  TYR88       0.0417
     32  CE2       14.6170   36.7560   11.6030 C.ar   88  TYR88       0.0417
     33  CZ        15.5030   35.7190   11.3530 C.ar   88  TYR88       0.1957
     34  OH        16.4790   36.0870   10.4480 O.3    88  TYR88      -0.2866
     35  N         14.5760   30.4610   10.1340 N.3   101  CYS101     -0.1235
     36  CA        15.3110   30.7500    8.8930 C.3   101  CYS101      0.1677
     37  C         16.5500   29.9000    8.7740 C.2   101  CYS101      0.2270
     38  O         17.2650   29.7060    9.7760 O.2   101  CYS101     -0.2867
     39  CB        15.6830   32.2350    8.8810 C.3   101  CYS101      0.0956
     40  SG        16.7690   32.7810    7.5040 S.3   101  CYS101     -0.0801
     41  N         17.9390   32.1760    1.1280 N.3   180  SER180     -0.1217
     42  CA        17.4260   31.6970    2.3820 C.3   180  SER180      0.1889
     43  C         15.9790   31.1800    2.2260 C.2   180  SER180      0.2288
     44  O         15.2190   31.6340    1.3620 O.2   180  SER180     -0.2866
     45  CB        17.4360   32.8030    3.4340 C.3   180  SER180      0.2089
     46  OG        16.5450   33.8390    2.9840 O.3   180  SER180     -0.2183
     47  N         12.6010   30.7810    4.7620 N.3   182  VAL182     -0.1245
     48  CA        12.0120   31.1440    6.0590 C.3   182  VAL182      0.1561
     49  C         10.7110   30.4040    6.2030 C.2   182  VAL182      0.2260
     50  O          9.8710   30.4580    5.3510 O.2   182  VAL182     -0.2867
     51  CB        11.7860   32.6310    6.2280 C.3   182  VAL182      0.0252
     52  CG1       11.3940   32.9740    7.6730 C.3   182  VAL182      0.0019
     53  CG2       13.0210   33.4200    5.8550 C.3   182  VAL182      0.0019
     54  N          7.5820   30.5780    8.1390 N.3   184  ILE184     -0.1245
     55  CA         6.8730   31.5400    9.0030 C.3   184  ILE184      0.1561
     56  C          5.5390   30.9860    9.4480 C.2   184  ILE184      0.2260
     57  O          4.7430   30.4700    8.6080 O.2   184  ILE184     -0.2867
     58  CB         6.6070   32.8810    8.2980 C.3   184  ILE184      0.0252
     59  CG1        7.8420   33.4450    7.6420 C.3   184  ILE184      0.0019
     60  CG2        5.9260   33.9020    9.2240 C.3   184  ILE184      0.0019
     61  CD1        7.5820   34.5700    6.6320 C.3   184  ILE184      0.0001
     62  N          2.0560   32.1760   11.0650 N.3   186  TYR186     -0.1241
     63  CA         1.1550   33.2190   11.4760 C.3   186  TYR186      0.1605
     64  C          0.0400   32.5170   12.2380 C.2   186  TYR186      0.2264
     65  O         -0.6580   31.7510   11.6240 O.2   186  TYR186     -0.2867
     66  CB         0.6730   33.9870   10.2420 C.3   186  TYR186      0.0534
     67  CG         1.5160   35.1060    9.6790 C.ar  186  TYR186     -0.0201
     68  CD1        1.5020   36.3530   10.2340 C.ar  186  TYR186     -0.0009
     69  CD2        2.3460   34.8630    8.5740 C.ar  186  TYR186     -0.0009
     70  CE1        2.2500   37.3990    9.7740 C.ar  186  TYR186      0.0417
     71  CE2        3.1010   35.9070    8.0860 C.ar  186  TYR186      0.0417
     72  CZ         3.0450   37.1380    8.6820 C.ar  186  TYR186      0.1957
     73  OH         3.8160   38.1670    8.1560 O.3   186  TYR186     -0.2866
     74  N          2.1660   43.0630    8.4670 N.3   208  PHE208     -0.1241
     75  CA         3.5030   43.5310    8.0390 C.3   208  PHE208      0.1605
     76  C          3.2730   44.6480    7.0350 C.2   208  PHE208      0.2264
     77  O          2.4240   44.4510    6.1460 O.2   208  PHE208     -0.2867
     78  CB         4.3290   42.4050    7.4410 C.3   208  PHE208      0.0534
     79  CG         5.8270   42.6190    7.2680 C.ar  208  PHE208     -0.0203
     80  CD1        6.6470   42.7620    8.3760 C.ar  208  PHE208     -0.0042
     81  CD2        6.4230   42.6780    6.0160 C.ar  208  PHE208     -0.0042
     82  CE1        8.0420   42.9510    8.1780 C.ar  208  PHE208     -0.0003
     83  CE2        7.7800   42.8750    5.8430 C.ar  208  PHE208     -0.0003
     84  CZ         8.6150   43.0260    6.9300 C.ar  208  PHE208     -0.0000
     85  N          6.4960   47.1590    1.7620 N.3   211  HIS211     -0.1241
     86  CA         7.8920   46.9840    1.4860 C.3   211  HIS211      0.1621
     87  C          8.1740   46.4980    0.0530 C.2   211  HIS211      0.2264
     88  O          7.2770   45.9840   -0.5990 O.2   211  HIS211     -0.2867
     89  CB         8.5470   45.9170    2.4080 C.3   211  HIS211      0.0745
     90  CG         8.0040   44.5590    2.2670 C.ar  211  HIS211      0.0817
     91  ND1        6.7350   44.1880    2.7080 N.ar  211  HIS211     -0.2268
     92  CD2        8.5680   43.4390    1.6890 C.ar  211  HIS211      0.1154
     93  CE1        6.5870   42.9010    2.4130 C.ar  211  HIS211      0.1986
     94  NE2        7.6440   42.4180    1.8000 N.ar  211  HIS211     -0.2212
     95  N         10.8180   43.6030   -1.6510 N.3   213  ASP213     -0.1225
     96  CA        11.6350   42.4810   -1.1780 C.3   213  ASP213      0.1805
     97  C         13.1210   42.7550   -1.4110 C.2   213  ASP213      0.2597
     98  O         13.5830   43.3800   -2.3890 O.2   213  ASP213     -0.2718
     99  CB        11.2800   41.2050   -1.8960 C.3   213  ASP213      0.1424
    100  CG         9.9840   40.5800   -1.3800 C.2   213  ASP213      0.3668
    101  OD1        9.3450   41.0650   -0.4260 O.co2 213  ASP213     -0.2456
    102  OD2        9.5660   39.5600   -1.9610 O.co2 213  ASP213     -0.2456
    103  N         13.9420   42.2390   -0.4420 N.am  214  VAL214     -0.1980
    104  CA        15.3730   42.1440   -0.5270 C.3   214  VAL214      0.1595
    105  C         15.6560   40.7580   -1.0770 C.2   214  VAL214      0.2287
    106  O         15.7210   39.7340   -0.4340 O.2   214  VAL214     -0.2864
    107  CB        16.0460   42.3740    0.8280 C.3   214  VAL214      0.0276
    108  CG1       17.5360   42.3530    0.6530 C.3   214  VAL214      0.0022
    109  CG2       15.6430   43.6970    1.3950 C.3   214  VAL214      0.0022
    110  N         11.6670   36.4570   -5.4430 N.3   218  THR218     -0.1218
    111  CA        11.0870   35.7420   -4.2920 C.3   218  THR218      0.1862
    112  C         10.1730   34.6540   -4.8140 C.2   218  THR218      0.2287
    113  O          9.3660   34.8720   -5.7090 O.2   218  THR218     -0.2866
    114  CB        10.3710   36.7430   -3.4010 C.3   218  THR218      0.1770
    115  OG1       11.3740   37.7220   -3.0360 O.3   218  THR218     -0.2211
    116  CG2        9.8470   36.0140   -2.1670 C.3   218  THR218      0.0375
    117  N          7.5810   31.9760   -3.3470 N.3   220  LEU220     -0.1245
    118  CA         6.7810   31.8480   -2.1270 C.3   220  LEU220      0.1561
    119  C          5.6880   30.8110   -2.1660 C.2   220  LEU220      0.2260
    120  O          4.8470   30.8370   -3.0800 O.2   220  LEU220     -0.2867
    121  CB         6.1360   33.2460   -1.8440 C.3   220  LEU220      0.0270
    122  CG         5.1800   33.3510   -0.6540 C.3   220  LEU220      0.0019
    123  CD1        5.9550   33.2650    0.6460 C.3   220  LEU220      0.0001
    124  CD2        4.3810   34.6410   -0.6730 C.3   220  LEU220      0.0001
    125  N          2.4430   29.7970    0.1640 N.3   222  GLN222     -0.1245
    126  CA         1.5850   30.1670    1.3040 C.3   222  GLN222      0.1566
    127  C          0.3300   29.2970    1.3310 C.2   222  GLN222      0.2260
    128  O         -0.1140   28.7620    0.3200 O.2   222  GLN222     -0.2867
    129  CB         1.1060   31.6030    1.2990 C.3   222  GLN222      0.0367
    130  CG         2.0440   32.7470    1.0640 C.3   222  GLN222      0.0905
    131  CD         1.4910   34.0760    1.5360 C.2   222  GLN222      0.2608
    132  OE1        0.4300   34.4680    1.1240 O.2   222  GLN222     -0.2717
    133  NE2        2.2830   34.7360    2.4240 N.am  222  GLN222     -0.0878
    134  N         -2.1990   38.8400    1.0540 N.3   228  LEU228     -0.1245
    135  CA        -1.2770   39.7550    0.4420 C.3   228  LEU228      0.1561
    136  C         -1.9580   40.8160   -0.4060 C.2   228  LEU228      0.2260
    137  O         -2.9880   40.5310   -1.0590 O.2   228  LEU228     -0.2867
    138  CB        -0.2560   38.9750   -0.4500 C.3   228  LEU228      0.0270
    139  CG         0.6330   37.9790    0.3260 C.3   228  LEU228      0.0019
    140  CD1        1.5270   37.2070   -0.6650 C.3   228  LEU228      0.0001
    141  CD2        1.4770   38.6310    1.3710 C.3   228  LEU228      0.0001
    142  N          3.9540   31.7470   -5.6440 N.3   247  LEU247     -0.1245
    143  CA         3.8160   33.1630   -5.9560 C.3   247  LEU247      0.1561
    144  C          5.2090   33.7450   -6.1810 C.2   247  LEU247      0.2260
    145  O          6.1120   33.5910   -5.3110 O.2   247  LEU247     -0.2867
    146  CB         3.0980   33.9330   -4.8550 C.3   247  LEU247      0.0270
    147  CG         2.7640   35.4260   -5.1510 C.3   247  LEU247      0.0019
    148  CD1        1.7200   35.5610   -6.2450 C.3   247  LEU247      0.0001
    149  CD2        2.2440   36.1050   -3.9160 C.3   247  LEU247      0.0001
    150  N          4.3400   45.6560   -1.7200 N.3   267  HIS267     -0.1241
    151  CA         3.3190   44.8350   -1.2070 C.3   267  HIS267      0.1621
    152  C          3.2970   44.8110    0.3260 C.2   267  HIS267      0.2264
    153  O          4.2280   45.2820    0.9770 O.2   267  HIS267     -0.2867
    154  CB         3.4970   43.4170   -1.7910 C.3   267  HIS267      0.0745
    155  CG         4.8060   42.7830   -1.5210 C.ar  267  HIS267      0.0817
    156  ND1        5.9660   43.0950   -2.1510 N.ar  267  HIS267     -0.2268
    157  CD2        5.1610   41.7860   -0.6750 C.ar  267  HIS267      0.1154
    158  CE1        6.9990   42.3740   -1.7280 C.ar  267  HIS267      0.1986
    159  NE2        6.4990   41.5440   -0.7870 N.ar  267  HIS267     -0.2212
    160  N          1.1240   42.7130    3.9840 N.3   269  VAL269     -0.1245
    161  CA         0.4360   41.5690    4.5280 C.3   269  VAL269      0.1561
    162  C         -0.7300   42.0000    5.3900 C.2   269  VAL269      0.2260
    163  O         -0.4570   42.6320    6.4430 O.2   269  VAL269     -0.2867
    164  CB         1.4350   40.7280    5.3510 C.3   269  VAL269      0.0252
    165  CG1        0.7780   39.5170    5.9340 C.3   269  VAL269      0.0019
    166  CG2        2.6430   40.2850    4.5080 C.3   269  VAL269      0.0019
    167  N          3.5820   30.9600    5.7980 N.3   278  SER278     -0.1217
    168  CA         4.2570   31.7220    4.7450 C.3   278  SER278      0.1889
    169  C          5.7210   31.2790    4.6720 C.2   278  SER278      0.2288
    170  O          6.4980   31.4200    5.5910 O.2   278  SER278     -0.2866
    171  CB         4.1380   33.2160    4.9890 C.3   278  SER278      0.2089
    172  OG         4.7070   33.9600    3.9100 O.3   278  SER278     -0.2183
    173  N          8.6220   31.7040    2.2640 N.3   280  PRO280     -0.2116
    174  CA         9.4190   32.2810    1.1670 C.3   280  PRO280      0.1372
    175  C         10.7890   31.6680    1.0530 C.2   280  PRO280      0.2244
    176  O         11.4480   31.2590    1.9970 O.2   280  PRO280     -0.2868
    177  CB         9.5800   33.7620    1.5750 C.3   280  PRO280      0.0268
    178  CG         9.5640   33.6680    3.0700 C.3   280  PRO280      0.0207
    179  CD         8.5310   32.6030    3.4290 C.3   280  PRO280      0.0892
    180  N         14.1140   33.2540   -0.6840 N.3   282  PHE282     -0.1241
    181  CA        14.6620   34.5090   -1.2410 C.3   282  PHE282      0.1605
    182  C         15.8200   34.1570   -2.1570 C.2   282  PHE282      0.2264
    183  O         16.8170   33.6380   -1.6470 O.2   282  PHE282     -0.2867
    184  CB        15.0450   35.4660   -0.0970 C.3   282  PHE282      0.0534
    185  CG        13.8490   35.9150    0.7290 C.ar  282  PHE282     -0.0203
    186  CD1       12.9130   36.7690    0.2010 C.ar  282  PHE282     -0.0042
    187  CD2       13.6680   35.4600    2.0350 C.ar  282  PHE282     -0.0042
    188  CE1       11.7990   37.1460    0.9300 C.ar  282  PHE282     -0.0003
    189  CE2       12.5610   35.8150    2.7950 C.ar  282  PHE282     -0.0003
    190  CZ        11.6600   36.6540    2.2220 C.ar  282  PHE282     -0.0000
    191  N         18.8550   34.8590   -3.7290 N.3   284  ASN284     -0.1240
    192  CA        20.0460   35.6950   -3.5960 C.3   284  ASN284      0.1653
    193  C         21.2090   35.0900   -4.3380 C.2   284  ASN284      0.2266
    194  O         21.3120   33.8590   -4.4230 O.2   284  ASN284     -0.2867
    195  CB        20.3670   35.8680   -2.1090 C.3   284  ASN284      0.1155
    196  CG        19.3120   36.5790   -1.2990 C.2   284  ASN284      0.2627
    197  OD1       18.6840   37.5180   -1.7670 O.2   284  ASN284     -0.2716
    198  ND2       19.1000   36.1000   -0.0640 N.am  284  ASN284     -0.0877
    199  N         18.9660   44.0050    4.2970 N.3   318  LEU318     -0.1245
    200  CA        18.3440   43.3010    5.4520 C.3   318  LEU318      0.1561
    201  C         18.3010   44.2160    6.6680 C.2   318  LEU318      0.2260
    202  O         17.2420   44.1710    7.3330 O.2   318  LEU318     -0.2867
    203  CB        19.0410   41.9440    5.7030 C.3   318  LEU318      0.0270
    204  CG        18.8580   40.9410    4.5470 C.3   318  LEU318      0.0019
    205  CD1       19.5070   39.6060    4.8660 C.3   318  LEU318      0.0001
    206  CD2       17.3800   40.6830    4.1200 C.3   318  LEU318      0.0001
    207  N         15.4600   46.9610    6.1150 N.3   321  LEU321     -0.1245
    208  CA        14.1080   46.4260    6.2410 C.3   321  LEU321      0.1561
    209  C         13.6150   46.2630    7.6750 C.2   321  LEU321      0.2260
    210  O         12.5160   46.4880    8.1700 O.2   321  LEU321     -0.2867
    211  CB        14.1000   45.1080    5.4220 C.3   321  LEU321      0.0270
    212  CG        12.8420   44.7980    4.6780 C.3   321  LEU321      0.0019
    213  CD1       12.6360   43.2470    4.6480 C.3   321  LEU321      0.0001
    214  CD2       11.5680   45.3940    5.2090 C.3   321  LEU321      0.0001
    215  N         11.4320   40.9600   12.8020 N.3   328  THR328     -0.1218
    216  CA        10.4490   39.9010   12.7060 C.3   328  THR328      0.1862
    217  C         10.7210   38.6940   13.6110 C.2   328  THR328      0.2287
    218  O          9.9050   37.7280   13.5470 O.2   328  THR328     -0.2866
    219  CB        10.3130   39.3290   11.2700 C.3   328  THR328      0.1770
    220  OG1       11.4990   38.7250   10.7450 O.3   328  THR328     -0.2211
    221  CG2        9.9600   40.4870   10.3050 C.3   328  THR328      0.0375
@<TRIPOS>BOND
     1     4     3    2
     2     3     2    1
     3     1     2    1
     4     2     5    1
     5     5     6    1
     6     6     7   ar
     7     6     8   ar
     8     7     9   ar
     9   148   147    1
    10   144   143    1
    11   144   145    2
    12     8    10   ar
    13   143   142    1
    14   143   146    1
    15     9    11   ar
    16   113   112    2
    17   110   111    1
    18   147   146    1
    19   147   149    1
    20    10    11   ar
    21   112   111    1
    22   194   193    2
    23   193   192    1
    24   111   114    1
    25   191   192    1
    26   192   195    1
    27   114   115    1
    28   114   116    1
    29   117   118    1
    30   120   119    2
    31    98    97    2
    32   119   118    1
    33   182   183    2
    34   182   181    1
    35   156   158   ar
    36   156   155   ar
    37   118   121    1
    38   195   196    1
    39   102   100   ar
    40    99   100    1
    41    99    96    1
    42   121   122    1
    43   154   155    1
    44   154   151    1
    45   197   196    2
    46   158   159   ar
    47   150   151    1
    48    95    96    1
    49   155   157   ar
    50    97    96    1
    51    97   103   am
    52   100   101   ar
    53   196   198   am
    54   181   180    1
    55   181   184    1
    56   151   152    1
    57   105   104    1
    58   105   106    2
    59   137   136    2
    60   159   157   ar
    61   124   122    1
    62   140   139    1
    63   122   123    1
    64    88    87    2
    65   104   103    1
    66   104   107    1
    67   138   139    1
    68   138   135    1
    69   136   135    1
    70   184   185    1
    71    87    86    1
    72   125   126    1
    73   186   185   ar
    74   186   188   ar
    75   128   127    2
    76   152   153    2
    77   139   141    1
    78   135   134    1
    79   108   107    1
    80   185   187   ar
    81   107   109    1
    82   188   190   ar
    83   175   174    1
    84   175   176    2
    85   130   129    1
    86   130   131    1
    87   132   131    2
    88    41    42    1
    89   174   177    1
    90   174   173    1
    91   129   126    1
    92   126   127    1
    93    44    43    2
    94    86    85    1
    95    86    89    1
    96   131   133   am
    97   177   178    1
    98    92    94   ar
    99    92    90   ar
   100    94    93   ar
   101   187   189   ar
   102   190   189   ar
   103    43    42    1
   104   173   179    1
   105    90    89    1
   106    90    91   ar
   107    42    45    1
   108    93    91   ar
   109    46    45    1
   110   178   179    1
   111    22    20    1
   112    21    20    1
   113   172   171    1
   114   160   161    1
   115   206   204    1
   116    20    19    2
   117   199   200    1
   118   166   164    1
   119   161   164    1
   120   161   162    1
   121   204   205    1
   122   204   203    1
   123   213   212    1
   124   169   168    1
   125   169   170    2
   126   212   214    1
   127   212   211    1
   128   168   171    1
   129   168   167    1
   130    47    48    1
   131   164   165    1
   132    50    49    2
   133   162   163    2
   134   211   208    1
   135    19    18    1
   136   200   203    1
   137   200   201    1
   138    83    81   ar
   139    83    84   ar
   140    53    51    1
   141    81    79   ar
   142    48    49    1
   143    48    51    1
   144   207   208    1
   145    77    76    2
   146    51    52    1
   147   208   209    1
   148    18    17    1
   149    61    59    1
   150   201   202    2
   151    84    82   ar
   152    76    75    1
   153    79    78    1
   154    79    80   ar
   155    78    75    1
   156    40    39    1
   157    59    58    1
   158   209   210    2
   159    17    16    1
   160    75    74    1
   161    71    69   ar
   162    71    72   ar
   163    54    55    1
   164    73    72    1
   165    82    80   ar
   166    58    55    1
   167    58    60    1
   168    16    13    1
   169    69    67   ar
   170    57    56    2
   171    72    70   ar
   172    37    36    1
   173    37    38    2
   174    39    36    1
   175    36    35    1
   176    55    56    1
   177    67    68   ar
   178    67    66    1
   179    70    68   ar
   180    13    14    1
   181    13    12    1
   182    15    14    2
   183    66    63    1
   184   221   219    1
   185    34    33    1
   186   220   219    1
   187    62    63    1
   188   219   216    1
   189    33    32   ar
   190    33    31   ar
   191    63    64    1
   192    32    30   ar
   193    65    64    2
   194    31    29   ar
   195    30    28   ar
   196   216   215    1
   197   216   217    1
   198    29    28   ar
   199    28    27    1
   200   218   217    2
   201    27    24    1
   202    23    24    1
   203    24    25    1
   204    26    25    2
