@<TRIPOS>MOLECULE
tmp/1qjpA03.pdb
 75 70 0 0 0
SMALL
GASTEIGER

@<TRIPOS>ATOM
      1  N         30.2990   25.0950   32.8790 N.3    26  ALA26      -0.1245
      2  CA        31.6770   25.0310   33.2660 C.3    26  ALA26       0.1562
      3  C         31.6900   24.5380   34.7040 C.2    26  ALA26       0.2260
      4  O         30.7120   24.7030   35.4320 O.2    26  ALA26      -0.2867
      5  CB        32.3870   26.3840   33.2330 C.3    26  ALA26       0.0290
      6  N         32.4540   23.1690   41.9140 N.3    40  MET40      -0.1245
      7  CA        31.5640   24.3030   41.7430 C.3    40  MET40       0.1570
      8  C         31.2600   24.3360   40.2460 C.2    40  MET40       0.2261
      9  O         32.1290   24.1080   39.3950 O.2    40  MET40      -0.2867
     10  CB        32.2000   25.6150   42.1650 C.3    40  MET40       0.0387
     11  CG        31.2920   26.8210   42.0240 C.3    40  MET40       0.0595
     12  SD        32.0530   28.2560   42.8220 S.3    40  MET40      -0.1393
     13  CE        32.3720   27.4830   44.4040 C.3    40  MET40       0.0692
     14  N         28.6080   25.9380   36.9610 N.3    42  TYR42      -0.1241
     15  CA        27.6900   26.8920   36.3580 C.3    42  TYR42       0.1605
     16  C         27.1920   26.2270   35.0740 C.2    42  TYR42       0.2264
     17  O         27.9990   25.7140   34.2930 O.2    42  TYR42      -0.2867
     18  CB        28.3970   28.2000   35.9490 C.3    42  TYR42       0.0534
     19  CG        27.4880   29.0450   35.0880 C.ar   42  TYR42      -0.0201
     20  CD1       26.4430   29.7770   35.6270 C.ar   42  TYR42      -0.0009
     21  CD2       27.6860   29.1130   33.7320 C.ar   42  TYR42      -0.0009
     22  CE1       25.5980   30.5610   34.8370 C.ar   42  TYR42       0.0417
     23  CE2       26.8710   29.8800   32.9260 C.ar   42  TYR42       0.0417
     24  CZ        25.8220   30.5820   33.4790 C.ar   42  TYR42       0.1957
     25  OH        25.0490   31.3200   32.6140 O.3    42  TYR42      -0.2866
     26  N         24.0760   27.8820   39.5550 N.3    57  VAL57      -0.1231
     27  CA        25.4180   27.7870   40.0930 C.3    57  VAL57       0.1692
     28  C         25.2760   26.7790   41.2180 C.2    57  VAL57       0.2592
     29  O         24.3340   26.8210   41.9880 O.2    57  VAL57      -0.2718
     30  CB        26.0220   29.1040   40.5620 C.3    57  VAL57       0.0266
     31  CG1       27.3720   28.9540   41.2110 C.3    57  VAL57       0.0020
     32  CG2       26.1840   30.0680   39.3950 C.3    57  VAL57       0.0020
     33  N         26.2170   25.8450   41.2880 N.am   58  GLN58      -0.1966
     34  CA        26.1370   24.7850   42.2800 C.3    58  GLN58       0.1733
     35  C         27.4740   24.4930   42.9340 C.2    58  GLN58       0.2616
     36  O         28.5090   24.7930   42.3570 O.2    58  GLN58      -0.2715
     37  CB        25.5400   23.5410   41.6210 C.3    58  GLN58       0.0408
     38  CG        26.3480   22.9130   40.4910 C.3    58  GLN58       0.0908
     39  CD        25.5980   21.7080   39.9090 C.2    58  GLN58       0.2608
     40  OE1       25.6850   20.6030   40.4440 O.2    58  GLN58      -0.2717
     41  NE2       24.8780   21.8860   38.8190 N.am   58  GLN58      -0.0878
     42  N         27.3730   23.9300   44.1310 N.am   59  LEU59      -0.1977
     43  CA        28.5310   23.5480   44.9380 C.3    59  LEU59       0.1596
     44  C         28.1920   22.1590   45.4630 C.2    59  LEU59       0.2287
     45  O         27.1270   21.9710   46.0450 O.2    59  LEU59      -0.2864
     46  CB        28.6700   24.5080   46.1200 C.3    59  LEU59       0.0297
     47  CG        29.8090   24.2480   47.0800 C.3    59  LEU59       0.0022
     48  CD1       31.1350   24.4130   46.3620 C.3    59  LEU59       0.0001
     49  CD2       29.6900   25.3180   48.1760 C.3    59  LEU59       0.0001
     50  N         24.1550   21.7410   46.6000 N.3    79  GLY79      -0.1210
     51  CA        23.0860   22.7220   46.3740 C.3    79  GLY79       0.1956
     52  C         23.3370   23.5850   45.1490 C.2    79  GLY79       0.2612
     53  O         24.4580   23.8250   44.7460 O.2    79  GLY79      -0.2717
     54  N         22.2280   24.1360   44.6650 N.am   80  MET80      -0.1965
     55  CA        22.2680   24.9950   43.5020 C.3    80  MET80       0.1736
     56  C         21.3370   26.1900   43.7020 C.2    80  MET80       0.2616
     57  O         20.2520   26.0250   44.2280 O.2    80  MET80      -0.2715
     58  CB        21.6810   24.2020   42.3260 C.3    80  MET80       0.0427
     59  CG        21.6830   24.9830   41.0180 C.3    80  MET80       0.0599
     60  SD        21.2090   23.9780   39.6020 S.3    80  MET80      -0.1393
     61  CE        19.5820   23.5270   40.1160 C.3    80  MET80       0.0692
     62  N         21.8320   27.3340   43.2810 N.am   81  VAL81      -0.1977
     63  CA        21.1190   28.5900   43.1870 C.3    81  VAL81       0.1596
     64  C         20.8080   28.7760   41.7150 C.2    81  VAL81       0.2287
     65  O         21.6770   28.6820   40.8540 O.2    81  VAL81      -0.2864
     66  CB        21.9060   29.7160   43.8380 C.3    81  VAL81       0.0276
     67  CG1       22.1840   29.4240   45.3030 C.3    81  VAL81       0.0022
     68  CG2       23.1340   30.1360   43.0830 C.3    81  VAL81       0.0022
     69  N         16.6860   28.1420   45.4000 N.3    99  VAL99      -0.1245
     70  CA        17.7910   27.3380   45.9080 C.3    99  VAL99       0.1561
     71  C         17.2220   25.9370   46.0460 C.2    99  VAL99       0.2260
     72  O         16.1130   25.6840   46.4980 O.2    99  VAL99      -0.2867
     73  CB        18.4100   27.7890   47.2240 C.3    99  VAL99       0.0252
     74  CG1       19.6150   26.9260   47.6220 C.3    99  VAL99       0.0019
     75  CG2       18.9750   29.1980   47.1850 C.3    99  VAL99       0.0019
@<TRIPOS>BOND
     1    25    24    1
     2     1     2    1
     3    23    24   ar
     4    23    21   ar
     5     5     2    1
     6     2     3    1
     7    24    22   ar
     8    21    19   ar
     9    17    16    2
    10     3     4    2
    11    22    20   ar
    12    16    15    1
    13    19    20   ar
    14    19    18    1
    15    18    15    1
    16    15    14    1
    17    41    39   am
    18     9     8    2
    19    32    30    1
    20    26    27    1
    21    60    61    1
    22    60    59    1
    23    39    40    2
    24    39    38    1
    25    27    30    1
    26    27    28    1
    27     8     7    1
    28    38    37    1
    29    30    31    1
    30    65    64    2
    31    59    58    1
    32    28    33   am
    33    28    29    2
    34    33    34    1
    35    37    34    1
    36    64    63    1
    37     7     6    1
    38     7    10    1
    39    11    10    1
    40    11    12    1
    41    34    35    1
    42    58    55    1
    43    36    35    2
    44    12    13    1
    45    35    42   am
    46    68    66    1
    47    63    62    1
    48    63    66    1
    49    62    56   am
    50    55    56    1
    51    55    54    1
    52    56    57    2
    53    66    67    1
    54    42    43    1
    55    54    52   am
    56    53    52    2
    57    43    44    1
    58    43    46    1
    59    52    51    1
    60    69    70    1
    61    44    45    2
    62    70    71    1
    63    70    73    1
    64    71    72    2
    65    46    47    1
    66    48    47    1
    67    51    50    1
    68    47    49    1
    69    75    73    1
    70    73    74    1
