@<TRIPOS>MOLECULE
tmp/1qjqA05.pdb
 179 176 0 0 0
SMALL
GASTEIGER

@<TRIPOS>ATOM
      1  N         85.5850   82.2280   46.9530 N.3    63  ARG63      -0.1245
      2  CA        85.5920   80.9340   46.2760 C.3    63  ARG63       0.1563
      3  C         86.1970   80.9230   44.8810 C.2    63  ARG63       0.2260
      4  O         85.9690   79.9990   44.0960 O.2    63  ARG63      -0.2867
      5  CB        84.1810   80.3750   46.2110 C.3    63  ARG63       0.0307
      6  CG        84.1480   78.8810   46.0800 C.3    63  ARG63       0.0489
      7  CD        84.6530   78.2290   47.3380 C.3    63  ARG63       0.2205
      8  NE        84.4300   76.7890   47.2830 N.pl3  63  ARG63      -0.0865
      9  CZ        84.0020   76.0660   48.3150 C.cat  63  ARG63       0.5346
     10  NH1       83.7540   76.6490   49.4850 N.pl3  63  ARG63       0.1354
     11  NH2       83.8000   74.7640   48.1720 N.pl3  63  ARG63       0.1354
     12  N         77.6370   79.9200   44.7730 N.3    69  TYR69      -0.1241
     13  CA        76.9810   80.6980   45.8100 C.3    69  TYR69       0.1605
     14  C         77.4540   82.1440   45.8460 C.2    69  TYR69       0.2264
     15  O         78.6360   82.4260   45.6670 O.2    69  TYR69      -0.2867
     16  CB        77.2620   80.0780   47.1750 C.3    69  TYR69       0.0534
     17  CG        76.7710   78.6720   47.3310 C.ar   69  TYR69      -0.0201
     18  CD1       75.4160   78.4010   47.5000 C.ar   69  TYR69      -0.0009
     19  CD2       77.6550   77.6080   47.2980 C.ar   69  TYR69      -0.0009
     20  CE1       74.9540   77.0950   47.6310 C.ar   69  TYR69       0.0417
     21  CE2       77.2080   76.2950   47.4310 C.ar   69  TYR69       0.0417
     22  CZ        75.8560   76.0360   47.5940 C.ar   69  TYR69       0.1957
     23  OH        75.4070   74.7220   47.7010 O.3    69  TYR69      -0.2866
     24  N         79.2320   78.8150   59.1760 N.3    81  GLY81      -0.1210
     25  CA        79.0340   77.6490   58.3400 C.3    81  GLY81       0.1956
     26  C         79.0010   77.8710   56.8450 C.2    81  GLY81       0.2611
     27  O         78.2640   77.1850   56.1460 O.2    81  GLY81      -0.2717
     28  N         79.7990   78.8070   56.3430 N.am   82  GLN82      -0.1979
     29  CA        79.8310   79.0910   54.9090 C.3    82  GLN82       0.1601
     30  C         78.4610   79.4060   54.3470 C.2    82  GLN82       0.2287
     31  O         78.2310   79.2690   53.1450 O.2    82  GLN82      -0.2864
     32  CB        80.4050   77.9110   54.1310 C.3    82  GLN82       0.0394
     33  CG        81.8870   78.0040   53.8510 C.3    82  GLN82       0.0908
     34  CD        82.2520   79.1410   52.9130 C.2    82  GLN82       0.2608
     35  OE1       81.6720   79.2890   51.8330 O.2    82  GLN82      -0.2717
     36  NE2       83.2330   79.9440   53.3160 N.am   82  GLN82      -0.0878
     37  N         72.8790   74.7970   55.1100 N.3    97  PHE97      -0.1227
     38  CA        73.8130   73.8210   54.5770 C.3    97  PHE97       0.1736
     39  C         74.0850   74.1810   53.1260 C.2    97  PHE97       0.2595
     40  O         74.3480   75.3330   52.8270 O.2    97  PHE97      -0.2718
     41  CB        73.1980   72.4330   54.6580 C.3    97  PHE97       0.0547
     42  CG        74.1880   71.3610   54.9150 C.ar   97  PHE97      -0.0202
     43  CD1       75.0050   71.4230   56.0410 C.ar   97  PHE97      -0.0042
     44  CD2       74.3100   70.2860   54.0410 C.ar   97  PHE97      -0.0042
     45  CE1       75.9310   70.4320   56.2930 C.ar   97  PHE97      -0.0003
     46  CE2       75.2310   69.2880   54.2840 C.ar   97  PHE97      -0.0003
     47  CZ        76.0480   69.3590   55.4150 C.ar   97  PHE97      -0.0000
     48  N         74.0000   73.2120   52.2250 N.am   98  TYR98      -0.1976
     49  CA        74.2490   73.4740   50.8090 C.3    98  TYR98       0.1639
     50  C         73.0720   74.1150   50.1180 C.2    98  TYR98       0.2290
     51  O         73.1650   74.4900   48.9540 O.2    98  TYR98      -0.2864
     52  CB        74.5580   72.1830   50.0660 C.3    98  TYR98       0.0560
     53  CG        75.9460   71.6580   50.2850 C.ar   98  TYR98      -0.0198
     54  CD1       77.0390   72.2690   49.6810 C.ar   98  TYR98      -0.0009
     55  CD2       76.1690   70.5300   51.0750 C.ar   98  TYR98      -0.0009
     56  CE1       78.3270   71.7770   49.8560 C.ar   98  TYR98       0.0417
     57  CE2       77.4540   70.0320   51.2590 C.ar   98  TYR98       0.0417
     58  CZ        78.5260   70.6610   50.6410 C.ar   98  TYR98       0.1957
     59  OH        79.7970   70.1840   50.8110 O.3    98  TYR98      -0.2866
     60  N         83.1960   73.5250   42.4760 N.3   226  TYR226     -0.1241
     61  CA        83.0900   73.9720   43.8570 C.3   226  TYR226      0.1605
     62  C         84.1030   73.1780   44.6850 C.2   226  TYR226      0.2264
     63  O         83.8730   72.8900   45.8650 O.2   226  TYR226     -0.2867
     64  CB        81.6710   73.7220   44.3730 C.3   226  TYR226      0.0534
     65  CG        81.3430   74.4910   45.6250 C.ar  226  TYR226     -0.0201
     66  CD1       81.3120   75.8810   45.6180 C.ar  226  TYR226     -0.0009
     67  CD2       81.0870   73.8330   46.8250 C.ar  226  TYR226     -0.0009
     68  CE1       81.0420   76.5980   46.7750 C.ar  226  TYR226      0.0417
     69  CE2       80.8130   74.5430   47.9900 C.ar  226  TYR226      0.0417
     70  CZ        80.7920   75.9210   47.9560 C.ar  226  TYR226      0.1957
     71  OH        80.5290   76.6360   49.0930 O.3   226  TYR226     -0.2866
     72  N         88.1650   72.0730   46.1580 N.3   228  TRP228     -0.1241
     73  CA        89.3290   72.6090   46.8710 C.3   228  TRP228      0.1605
     74  C         90.6620   72.2150   46.2370 C.2   228  TRP228      0.2264
     75  O         90.8210   71.0980   45.7450 O.2   228  TRP228     -0.2867
     76  CB        89.3840   72.0980   48.3120 C.3   228  TRP228      0.0550
     77  CG        88.2390   72.4330   49.1620 C.ar  228  TRP228      0.0003
     78  CD1       87.2370   73.3100   48.8900 C.ar  228  TRP228      0.0946
     79  CD2       87.9730   71.8990   50.4600 C.ar  228  TRP228      0.0152
     80  NE1       86.3570   73.3550   49.9410 N.ar  228  TRP228     -0.2442
     81  CE2       86.7850   72.4970   50.9190 C.ar  228  TRP228      0.0810
     82  CE3       88.6260   70.9700   51.2820 C.ar  228  TRP228      0.0012
     83  CZ2       86.2320   72.1980   52.1620 C.ar  228  TRP228      0.0191
     84  CZ3       88.0770   70.6760   52.5180 C.ar  228  TRP228      0.0001
     85  CH2       86.8920   71.2870   52.9450 C.ar  228  TRP228      0.0015
     86  N         73.9000   66.9820   44.8900 N.3   291  GLN291     -0.1245
     87  CA        75.2100   66.8340   44.2740 C.3   291  GLN291      0.1566
     88  C         75.8770   65.4860   44.5160 C.2   291  GLN291      0.2260
     89  O         75.5520   64.7560   45.4610 O.2   291  GLN291     -0.2867
     90  CB        76.1560   67.9320   44.7810 C.3   291  GLN291      0.0367
     91  CG        76.4570   67.8230   46.2830 C.3   291  GLN291      0.0905
     92  CD        77.3850   68.8990   46.7890 C.2   291  GLN291      0.2608
     93  OE1       78.5560   68.9430   46.4230 O.2   291  GLN291     -0.2717
     94  NE2       76.8640   69.7790   47.6350 N.am  291  GLN291     -0.0878
     95  N         85.6590   66.1020   46.0880 N.3   295  TYR295     -0.1241
     96  CA        86.4840   67.2820   46.2680 C.3   295  TYR295      0.1605
     97  C         87.8220   66.8340   46.7920 C.2   295  TYR295      0.2264
     98  O         87.9450   65.7440   47.3400 O.2   295  TYR295     -0.2867
     99  CB        85.8680   68.2590   47.2680 C.3   295  TYR295      0.0534
    100  CG        85.5910   67.6880   48.6420 C.ar  295  TYR295     -0.0201
    101  CD1       84.4850   66.8910   48.8640 C.ar  295  TYR295     -0.0009
    102  CD2       86.4140   67.9900   49.7300 C.ar  295  TYR295     -0.0009
    103  CE1       84.1880   66.4040   50.1240 C.ar  295  TYR295      0.0417
    104  CE2       86.1280   67.5000   51.0100 C.ar  295  TYR295      0.0417
    105  CZ        85.0060   66.7080   51.1960 C.ar  295  TYR295      0.1957
    106  OH        84.6840   66.1980   52.4420 O.3   295  TYR295     -0.2866
    107  N         91.1110   67.1350   49.3050 N.3   297  TYR297     -0.1241
    108  CA        91.4470   67.6330   50.6130 C.3   297  TYR297      0.1605
    109  C         92.8510   68.1450   50.3410 C.2   297  TYR297      0.2264
    110  O         93.0560   68.7780   49.3080 O.2   297  TYR297     -0.2867
    111  CB        91.4060   66.5290   51.6620 C.3   297  TYR297      0.0534
    112  CG        90.5690   66.9470   52.8490 C.ar  297  TYR297     -0.0201
    113  CD1       89.2850   67.4530   52.6650 C.ar  297  TYR297     -0.0009
    114  CD2       91.0800   66.9150   54.1450 C.ar  297  TYR297     -0.0009
    115  CE1       88.5350   67.9240   53.7340 C.ar  297  TYR297      0.0417
    116  CE2       90.3350   67.3870   55.2230 C.ar  297  TYR297      0.0417
    117  CZ        89.0650   67.8950   55.0080 C.ar  297  TYR297      0.1957
    118  OH        88.3290   68.4020   56.0550 O.3   297  TYR297     -0.2866
    119  N         81.2200   63.8130   48.6640 N.3   328  VAL328     -0.1245
    120  CA        79.9320   63.9690   49.2920 C.3   328  VAL328      0.1561
    121  C         78.8150   63.7690   48.2600 C.2   328  VAL328      0.2260
    122  O         78.9660   64.0670   47.0690 O.2   328  VAL328     -0.2867
    123  CB        79.8040   65.3480   49.9790 C.3   328  VAL328      0.0252
    124  CG1       79.9860   66.4560   48.9590 C.3   328  VAL328      0.0019
    125  CG2       78.4560   65.4540   50.6820 C.3   328  VAL328      0.0019
    126  N         78.8560   61.4220   53.1870 N.3   373  PHE373     -0.1241
    127  CA        80.2100   61.9680   53.0910 C.3   373  PHE373      0.1605
    128  C         81.3160   60.9120   53.1260 C.2   373  PHE373      0.2264
    129  O         81.2930   59.9850   53.9380 O.2   373  PHE373     -0.2867
    130  CB        80.5020   62.9550   54.2240 C.3   373  PHE373      0.0534
    131  CG        79.7390   64.2380   54.1360 C.ar  373  PHE373     -0.0203
    132  CD1       78.4750   64.3530   54.7090 C.ar  373  PHE373     -0.0042
    133  CD2       80.3050   65.3500   53.5240 C.ar  373  PHE373     -0.0042
    134  CE1       77.7870   65.5530   54.6710 C.ar  373  PHE373     -0.0003
    135  CE2       79.6240   66.5520   53.4820 C.ar  373  PHE373     -0.0003
    136  CZ        78.3640   66.6570   54.0600 C.ar  373  PHE373     -0.0000
    137  N         75.7800   75.2900   66.3980 N.3   498  GLN498     -0.1245
    138  CA        76.7010   74.3330   66.9900 C.3   498  GLN498      0.1566
    139  C         76.3630   73.9230   68.4160 C.2   498  GLN498      0.2260
    140  O         75.8660   74.7220   69.2130 O.2   498  GLN498     -0.2867
    141  CB        78.1200   74.8910   66.9330 C.3   498  GLN498      0.0367
    142  CG        78.5880   75.1110   65.5170 C.3   498  GLN498      0.0905
    143  CD        78.3110   73.9060   64.6420 C.2   498  GLN498      0.2608
    144  OE1       78.8700   72.8320   64.8610 O.2   498  GLN498     -0.2717
    145  NE2       77.4370   74.0720   63.6540 N.am  498  GLN498     -0.0878
    146  N         87.3740   68.3650   70.9770 N.3   550  PHE550     -0.1241
    147  CA        86.4520   68.2120   69.8500 C.3   550  PHE550      0.1605
    148  C         85.4160   69.3480   69.8540 C.2   550  PHE550      0.2264
    149  O         85.2120   70.0210   68.8440 O.2   550  PHE550     -0.2867
    150  CB        85.7290   66.8560   69.9310 C.3   550  PHE550      0.0534
    151  CG        86.5360   65.6900   69.4080 C.ar  550  PHE550     -0.0203
    152  CD1       87.8850   65.5430   69.7370 C.ar  550  PHE550     -0.0042
    153  CD2       85.9340   64.7230   68.6000 C.ar  550  PHE550     -0.0042
    154  CE1       88.6210   64.4520   69.2680 C.ar  550  PHE550     -0.0003
    155  CE2       86.6610   63.6280   68.1260 C.ar  550  PHE550     -0.0003
    156  CZ        88.0070   63.4930   68.4610 C.ar  550  PHE550     -0.0000
    157  N         91.0330   79.2010   52.3700 N.3   686  PHE686     -0.1241
    158  CA        90.3690   79.3070   53.6610 C.3   686  PHE686      0.1605
    159  C         91.1710   78.4180   54.6060 C.2   686  PHE686      0.2264
    160  O         90.9420   78.3890   55.8210 O.2   686  PHE686     -0.2867
    161  CB        88.9020   78.8690   53.5570 C.3   686  PHE686      0.0534
    162  CG        88.7160   77.4040   53.4050 C.ar  686  PHE686     -0.0203
    163  CD1       88.6720   76.5800   54.5250 C.ar  686  PHE686     -0.0042
    164  CD2       88.5990   76.8360   52.1420 C.ar  686  PHE686     -0.0042
    165  CE1       88.5130   75.2070   54.3930 C.ar  686  PHE686     -0.0003
    166  CE2       88.4400   75.4570   51.9960 C.ar  686  PHE686     -0.0003
    167  CZ        88.3970   74.6420   53.1240 C.ar  686  PHE686     -0.0000
    168  N         94.5500   73.4820   52.5130 N.3   689  TYR689     -0.1241
    169  CA        94.0460   72.5350   51.5440 C.3   689  TYR689      0.1605
    170  C         92.8370   73.0970   50.8220 C.2   689  TYR689      0.2264
    171  O         92.2020   72.4000   50.0440 O.2   689  TYR689     -0.2867
    172  CB        93.6780   71.2500   52.2710 C.3   689  TYR689      0.0534
    173  CG        92.8500   71.4920   53.5060 C.ar  689  TYR689     -0.0201
    174  CD1       91.4800   71.7240   53.4140 C.ar  689  TYR689     -0.0009
    175  CD2       93.4370   71.4930   54.7690 C.ar  689  TYR689     -0.0009
    176  CE1       90.7070   71.9340   54.5570 C.ar  689  TYR689      0.0417
    177  CE2       92.6780   71.7060   55.9140 C.ar  689  TYR689      0.0417
    178  CZ        91.3150   71.9250   55.8000 C.ar  689  TYR689      0.1957
    179  OH        90.5560   72.0980   56.9270 O.3   689  TYR689     -0.2866
@<TRIPOS>BOND
     1    60    61    1
     2    61    64    1
     3    61    62    1
     4     4     3    2
     5    87    88    1
     6    87    90    1
     7    87    86    1
     8    64    65    1
     9    88    89    2
    10    62    63    2
    11    12    13    1
    12    90    91    1
    13     3     2    1
    14    66    65   ar
    15    66    68   ar
    16    65    67   ar
    17    15    14    2
    18    75    74    2
    19    13    14    1
    20    13    16    1
    21     6     5    1
    22     6     7    1
    23    95    96    1
    24    72    73    1
    25     5     2    1
    26    74    73    1
    27    96    97    1
    28    96    99    1
    29     2     1    1
    30    91    92    1
    31    93    92    2
    32    68    70   ar
    33    92    94   am
    34    97    98    2
    35    67    69   ar
    36    73    76    1
    37   122   121    2
    38    16    17    1
    39    99   100    1
    40     8     7    1
    41     8     9    2
    42    19    17   ar
    43    19    21   ar
    44    17    18   ar
    45    21    22   ar
    46    18    20   ar
    47    22    20   ar
    48    22    23    1
    49    70    69   ar
    50    70    71    1
    51    11     9    1
    52   121   120    1
    53    76    77    1
    54     9    10    1
    55   100   101   ar
    56   100   102   ar
    57   119   120    1
    58   101   103   ar
    59    78    77   ar
    60    78    80   ar
    61    51    50    2
    62   124   123    1
    63    77    79   ar
    64   120   123    1
    65   107   108    1
    66   110   109    2
    67    54    56   ar
    68    54    53   ar
    69   102   104   ar
    70    56    58   ar
    71    80    81   ar
    72   123   125    1
    73   171   170    2
    74    52    53    1
    75    52    49    1
    76    50    49    1
    77   103   105   ar
    78    53    55   ar
    79   109   108    1
    80    79    81   ar
    81    79    82   ar
    82   108   111    1
    83    58    59    1
    84    58    57   ar
    85    49    48    1
    86   170   169    1
    87    81    83   ar
    88   104   105   ar
    89    55    57   ar
    90   105   106    1
    91    82    84   ar
    92   169   172    1
    93   169   168    1
    94   111   112    1
    95    35    34    2
    96   166   164   ar
    97   166   167   ar
    98   164   162   ar
    99    83    85   ar
   100    48    39   am
   101   172   173    1
   102   157   158    1
   103    84    85   ar
   104   113   112   ar
   105   113   115   ar
   106    40    39    2
   107   112   114   ar
   108    34    36   am
   109    34    33    1
   110   127   128    1
   111   127   126    1
   112   127   130    1
   113   167   165   ar
   114   128   129    2
   115    39    38    1
   116    31    30    2
   117   162   161    1
   118   162   163   ar
   119   174   173   ar
   120   174   176   ar
   121   135   133   ar
   122   135   136   ar
   123   173   175   ar
   124   133   131   ar
   125   161   158    1
   126   158   159    1
   127   115   117   ar
   128    33    32    1
   129    44    46   ar
   130    44    42   ar
   131   136   134   ar
   132    32    29    1
   133   131   130    1
   134   131   132   ar
   135   114   116   ar
   136    46    47   ar
   137    30    29    1
   138   165   163   ar
   139   176   178   ar
   140    38    41    1
   141    38    37    1
   142   159   160    2
   143    41    42    1
   144   134   132   ar
   145   175   177   ar
   146    29    28    1
   147    42    43   ar
   148   117   116   ar
   149   117   118    1
   150    47    45   ar
   151   178   177   ar
   152   178   179    1
   153    43    45   ar
   154    27    26    2
   155    28    26   am
   156    26    25    1
   157    25    24    1
   158   145   143   am
   159   143   144    2
   160   143   142    1
   161   142   141    1
   162   137   138    1
   163   141   138    1
   164   138   139    1
   165   155   156   ar
   166   155   153   ar
   167   139   140    2
   168   156   154   ar
   169   153   151   ar
   170   149   148    2
   171   154   152   ar
   172   151   152   ar
   173   151   150    1
   174   147   148    1
   175   147   150    1
   176   147   146    1
