@<TRIPOS>MOLECULE
tmp/1qjqA01.pdb
 95 92 0 0 0
SMALL
GASTEIGER

@<TRIPOS>ATOM
      1  N         50.2960   97.2200   44.7630 N.3   211  PHE211     -0.1241
      2  CA        50.4850   95.8330   45.1550 C.3   211  PHE211      0.1605
      3  C         51.1780   95.1400   44.0000 C.2   211  PHE211      0.2264
      4  O         50.5380   94.8330   42.9950 O.2   211  PHE211     -0.2867
      5  CB        49.1440   95.1530   45.4040 C.3   211  PHE211      0.0534
      6  CG        49.2460   93.6640   45.6240 C.ar  211  PHE211     -0.0203
      7  CD1       49.1980   92.7800   44.5430 C.ar  211  PHE211     -0.0042
      8  CD2       49.3840   93.1410   46.9100 C.ar  211  PHE211     -0.0042
      9  CE1       49.2860   91.3930   44.7380 C.ar  211  PHE211     -0.0003
     10  CE2       49.4710   91.7550   47.1170 C.ar  211  PHE211     -0.0003
     11  CZ        49.4220   90.8800   46.0260 C.ar  211  PHE211     -0.0000
     12  N         53.1780   91.8750   42.5870 N.3   213  PHE213     -0.1241
     13  CA        53.4070   90.4420   42.7460 C.3   213  PHE213      0.1605
     14  C         54.8120   90.1460   42.2710 C.2   213  PHE213      0.2264
     15  O         55.1820   90.4970   41.1500 O.2   213  PHE213     -0.2867
     16  CB        52.4060   89.6760   41.8880 C.3   213  PHE213      0.0534
     17  CG        52.6360   88.1960   41.8360 C.ar  213  PHE213     -0.0203
     18  CD1       52.3510   87.3930   42.9320 C.ar  213  PHE213     -0.0042
     19  CD2       53.0740   87.5950   40.6610 C.ar  213  PHE213     -0.0042
     20  CE1       52.4920   86.0000   42.8560 C.ar  213  PHE213     -0.0003
     21  CE2       53.2180   86.2090   40.5740 C.ar  213  PHE213     -0.0003
     22  CZ        52.9240   85.4100   41.6750 C.ar  213  PHE213     -0.0000
     23  N         57.2340   82.7450   45.2350 N.3   264  VAL264     -0.1231
     24  CA        56.1240   83.6460   44.9570 C.3   264  VAL264      0.1692
     25  C         55.9530   84.5700   46.1600 C.2   264  VAL264      0.2593
     26  O         56.1420   84.1600   47.3080 O.2   264  VAL264     -0.2718
     27  CB        54.8260   82.8790   44.7400 C.3   264  VAL264      0.0266
     28  CG1       54.9820   81.9290   43.5550 C.3   264  VAL264      0.0020
     29  CG2       54.4590   82.1200   46.0060 C.3   264  VAL264      0.0020
     30  N         55.6060   85.8220   45.8880 N.am  265  GLY265     -0.1942
     31  CA        55.4240   86.7950   46.9460 C.3   265  GLY265      0.2014
     32  C         54.8940   88.1100   46.3980 C.2   265  GLY265      0.2638
     33  O         54.3730   88.1820   45.2800 O.2   265  GLY265     -0.2714
     34  N         55.0300   89.1690   47.1830 N.am  266  TYR266     -0.1973
     35  CA        54.5410   90.4580   46.7500 C.3   266  TYR266      0.1639
     36  C         55.0070   91.6000   47.6280 C.2   266  TYR266      0.2290
     37  O         55.3470   91.4190   48.8060 O.2   266  TYR266     -0.2864
     38  CB        53.0150   90.4440   46.7110 C.3   266  TYR266      0.0560
     39  CG        52.3540   90.2290   48.0580 C.ar  266  TYR266     -0.0198
     40  CD1       52.4030   91.2120   49.0480 C.ar  266  TYR266     -0.0009
     41  CD2       51.6640   89.0510   48.3360 C.ar  266  TYR266     -0.0009
     42  CE1       51.7860   91.0310   50.2810 C.ar  266  TYR266      0.0417
     43  CE2       51.0430   88.8560   49.5640 C.ar  266  TYR266      0.0417
     44  CZ        51.1080   89.8520   50.5350 C.ar  266  TYR266      0.1957
     45  OH        50.5040   89.6640   51.7630 O.3   266  TYR266     -0.2866
     46  N         55.9680   90.1510   51.3930 N.3   282  LEU282     -0.1245
     47  CA        55.8230   88.7350   51.6700 C.3   282  LEU282      0.1561
     48  C         56.3550   87.8560   50.5510 C.2   282  LEU282      0.2260
     49  O         56.2290   88.1850   49.3770 O.2   282  LEU282     -0.2867
     50  CB        54.3390   88.4270   51.9150 C.3   282  LEU282      0.0270
     51  CG        53.8450   86.9790   51.9960 C.3   282  LEU282      0.0019
     52  CD1       52.5030   86.9400   52.7090 C.3   282  LEU282      0.0001
     53  CD2       53.7330   86.3840   50.6030 C.3   282  LEU282      0.0001
     54  N         57.2530   83.4130   49.6160 N.3   284  PHE284     -0.1241
     55  CA        57.3210   82.0110   49.9760 C.3   284  PHE284      0.1605
     56  C         58.1640   81.3110   48.9200 C.2   284  PHE284      0.2264
     57  O         57.9770   81.5400   47.7240 O.2   284  PHE284     -0.2867
     58  CB        55.9630   81.3420   49.9870 C.3   284  PHE284      0.0534
     59  CG        56.0590   79.8730   50.2390 C.ar  284  PHE284     -0.0203
     60  CD1       56.2920   79.3990   51.5240 C.ar  284  PHE284     -0.0042
     61  CD2       56.0500   78.9690   49.1810 C.ar  284  PHE284     -0.0042
     62  CE1       56.5160   78.0570   51.7510 C.ar  284  PHE284     -0.0003
     63  CE2       56.2780   77.6170   49.4000 C.ar  284  PHE284     -0.0003
     64  CZ        56.5130   77.1620   50.6860 C.ar  284  PHE284     -0.0000
     65  N         61.8930   74.9120   52.4500 N.3   335  GLN335     -0.1245
     66  CA        60.8330   75.8640   52.1990 C.3   335  GLN335      0.1566
     67  C         61.0830   76.9870   53.1970 C.2   335  GLN335      0.2260
     68  O         61.5670   76.7510   54.3160 O.2   335  GLN335     -0.2867
     69  CB        59.4560   75.2300   52.3940 C.3   335  GLN335      0.0367
     70  CG        59.4150   74.1640   53.4690 C.3   335  GLN335      0.0905
     71  CD        59.4790   72.7580   52.9030 C.2   335  GLN335      0.2608
     72  OE1       59.6790   71.7920   53.6420 O.2   335  GLN335     -0.2717
     73  NE2       59.3010   72.6350   51.5890 N.am  335  GLN335     -0.0878
     74  N         59.2510   80.8570   54.4240 N.3   337  PHE337     -0.1241
     75  CA        58.1520   81.8020   54.3200 C.3   337  PHE337      0.1605
     76  C         58.5670   83.0850   54.9890 C.2   337  PHE337      0.2264
     77  O         59.1610   83.0590   56.0640 O.2   337  PHE337     -0.2867
     78  CB        56.9040   81.2640   55.0100 C.3   337  PHE337      0.0534
     79  CG        55.7380   82.2040   54.9500 C.ar  337  PHE337     -0.0203
     80  CD1       55.0730   82.4230   53.7510 C.ar  337  PHE337     -0.0042
     81  CD2       55.3230   82.8950   56.0880 C.ar  337  PHE337     -0.0042
     82  CE1       54.0050   83.3240   53.6810 C.ar  337  PHE337     -0.0003
     83  CE2       54.2600   83.7980   56.0320 C.ar  337  PHE337     -0.0003
     84  CZ        53.5980   84.0140   54.8260 C.ar  337  PHE337     -0.0000
     85  N         60.1080   81.6580   58.5970 N.3   364  ARG364     -0.1245
     86  CA        60.2980   80.2860   59.0080 C.3   364  ARG364      0.1563
     87  C         60.9660   79.5740   57.8410 C.2   364  ARG364      0.2260
     88  O         60.6260   79.8020   56.6750 O.2   364  ARG364     -0.2867
     89  CB        58.9690   79.6040   59.3470 C.3   364  ARG364      0.0307
     90  CG        58.0070   79.4270   58.1740 C.3   364  ARG364      0.0489
     91  CD        56.8850   78.4640   58.5390 C.3   364  ARG364      0.2205
     92  NE        57.3100   77.0730   58.4670 N.pl3 364  ARG364     -0.0865
     93  CZ        57.1620   76.3060   57.3870 C.cat 364  ARG364      0.5346
     94  NH1       56.5940   76.7960   56.2890 N.pl3 364  ARG364      0.1354
     95  NH2       57.5820   75.0470   57.3970 N.pl3 364  ARG364      0.1354
@<TRIPOS>BOND
     1    21    19   ar
     2    21    22   ar
     3    19    17   ar
     4    15    14    2
     5    22    20   ar
     6    17    16    1
     7    17    18   ar
     8    16    13    1
     9    14    13    1
    10    12    13    1
    11    20    18   ar
    12     4     3    2
    13    28    27    1
    14     3     2    1
    15     7     9   ar
    16     7     6   ar
    17     9    11   ar
    18    27    24    1
    19    27    29    1
    20     1     2    1
    21    24    23    1
    22    24    25    1
    23     2     5    1
    24    33    32    2
    25     5     6    1
    26     6     8   ar
    27    30    25   am
    28    30    31    1
    29    11    10   ar
    30    25    26    2
    31    32    31    1
    32    32    34   am
    33    38    35    1
    34    38    39    1
    35    35    34    1
    36    35    36    1
    37     8    10   ar
    38    36    37    2
    39    57    56    2
    40    39    41   ar
    41    39    40   ar
    42    41    43   ar
    43    56    55    1
    44    40    42   ar
    45    61    63   ar
    46    61    59   ar
    47    49    48    2
    48    63    64   ar
    49    43    44   ar
    50    54    55    1
    51    55    58    1
    52    58    59    1
    53    59    60   ar
    54    42    44   ar
    55    44    45    1
    56    48    47    1
    57    53    51    1
    58    64    62   ar
    59    46    47    1
    60    60    62   ar
    61    73    71   am
    62    47    50    1
    63    50    51    1
    64    51    52    1
    65    66    69    1
    66    66    65    1
    67    66    67    1
    68    69    70    1
    69    71    70    1
    70    71    72    2
    71    67    68    2
    72    82    80   ar
    73    82    84   ar
    74    80    79   ar
    75    75    74    1
    76    75    76    1
    77    75    78    1
    78    84    83   ar
    79    79    78    1
    80    79    81   ar
    81    76    77    2
    82    83    81   ar
    83    94    93    1
    84    88    87    2
    85    93    95    1
    86    93    92    2
    87    87    86    1
    88    90    91    1
    89    90    89    1
    90    92    91    1
    91    85    86    1
    92    86    89    1
