@<TRIPOS>MOLECULE
tmp/1qjuA00.pdb
 204 191 0 0 0
SMALL
GASTEIGER

@<TRIPOS>ATOM
      1  N        139.1400 -125.5270   17.7340 N.3    77  ILE77      -0.1245
      2  CA       137.9760 -126.3370   17.3990 C.3    77  ILE77       0.1561
      3  C        138.3330 -127.6220   16.6480 C.2    77  ILE77       0.2260
      4  O        137.4690 -128.4580   16.4120 O.2    77  ILE77      -0.2867
      5  CB       136.9460 -125.5520   16.5520 C.3    77  ILE77       0.0252
      6  CG1      137.5770 -125.0930   15.2380 C.3    77  ILE77       0.0019
      7  CG2      136.4100 -124.3790   17.3410 C.3    77  ILE77       0.0019
      8  CD1      136.5710 -124.5920   14.2300 C.3    77  ILE77       0.0001
      9  N        138.1020 -133.1060    6.8360 N.3    96  TRP96      -0.1241
     10  CA       137.3670 -133.0430    8.0880 C.3    96  TRP96       0.1605
     11  C        135.9670 -132.5220    7.8160 C.2    96  TRP96       0.2264
     12  O        135.7850 -131.6050    7.0170 O.2    96  TRP96      -0.2867
     13  CB       138.1020 -132.1110    9.0640 C.3    96  TRP96       0.0550
     14  CG       137.3820 -131.8160   10.3470 C.ar   96  TRP96       0.0003
     15  CD1      136.9000 -132.7170   11.2520 C.ar   96  TRP96       0.0946
     16  CD2      137.0770 -130.5210   10.8720 C.ar   96  TRP96       0.0152
     17  NE1      136.3140 -132.0640   12.3100 N.ar   96  TRP96      -0.2442
     18  CE2      136.4090 -130.7120   12.1020 C.ar   96  TRP96       0.0810
     19  CE3      137.3060 -129.2130   10.4200 C.ar   96  TRP96       0.0012
     20  CZ2      135.9640 -129.6420   12.8880 C.ar   96  TRP96       0.0191
     21  CZ3      136.8650 -128.1510   11.2020 C.ar   96  TRP96       0.0001
     22  CH2      136.2010 -128.3730   12.4230 C.ar   96  TRP96       0.0015
     23  N        133.4720 -130.3530    8.9270 N.3    98  ILE98      -0.1231
     24  CA       133.4000 -129.1850    9.7930 C.3    98  ILE98       0.1692
     25  C        132.2570 -129.1400   10.7980 C.2    98  ILE98       0.2592
     26  O        131.1190 -129.4600   10.4740 O.2    98  ILE98      -0.2718
     27  CB       133.3720 -127.9060    8.9250 C.3    98  ILE98       0.0266
     28  CG1      134.5680 -127.9040    7.9740 C.3    98  ILE98       0.0019
     29  CG2      133.4230 -126.6710    9.7950 C.3    98  ILE98       0.0020
     30  CD1      134.4690 -126.9020    6.8560 C.3    98  ILE98       0.0001
     31  N        132.5860 -128.7400   12.0240 N.am   99  ASN99      -0.1960
     32  CA       131.6130 -128.5990   13.1040 C.3    99  ASN99       0.1819
     33  C        132.2860 -127.9380   14.3050 C.2    99  ASN99       0.2621
     34  O        133.5160 -127.9340   14.4020 O.2    99  ASN99      -0.2715
     35  CB       131.0420 -129.9580   13.5100 C.3    99  ASN99       0.1195
     36  CG       132.0360 -130.8040   14.2860 C.2    99  ASN99       0.2630
     37  OD1      132.1530 -130.6890   15.5070 O.2    99  ASN99      -0.2716
     38  ND2      132.7570 -131.6580   13.5800 N.am   99  ASN99      -0.0877
     39  N        131.4810 -127.3760   15.2060 N.am  100  LEU100     -0.1977
     40  CA       131.9990 -126.7230   16.4050 C.3   100  LEU100      0.1596
     41  C        131.6370 -127.5450   17.6280 C.2   100  LEU100      0.2287
     42  O        131.4530 -126.9940   18.7100 O.2   100  LEU100     -0.2864
     43  CB       131.3900 -125.3290   16.5660 C.3   100  LEU100      0.0297
     44  CG       131.6010 -124.3040   15.4560 C.3   100  LEU100      0.0022
     45  CD1      130.7830 -123.0650   15.7590 C.3   100  LEU100      0.0001
     46  CD2      133.0800 -123.9550   15.3600 C.3   100  LEU100      0.0001
     47  N        126.2590 -115.3430   13.8410 N.3   118  PHE118     -0.1241
     48  CA       127.5480 -114.6770   13.9240 C.3   118  PHE118      0.1605
     49  C        128.4100 -114.9120   12.6980 C.2   118  PHE118      0.2264
     50  O        128.1550 -115.8100   11.9000 O.2   118  PHE118     -0.2867
     51  CB       128.3060 -115.1530   15.1720 C.3   118  PHE118      0.0534
     52  CG       128.4520 -116.6520   15.2710 C.ar  118  PHE118     -0.0203
     53  CD1      129.4690 -117.3150   14.5940 C.ar  118  PHE118     -0.0042
     54  CD2      127.5700 -117.4010   16.0390 C.ar  118  PHE118     -0.0042
     55  CE1      129.6060 -118.6950   14.6810 C.ar  118  PHE118     -0.0003
     56  CE2      127.6980 -118.7850   16.1330 C.ar  118  PHE118     -0.0003
     57  CZ       128.7160 -119.4310   15.4510 C.ar  118  PHE118     -0.0000
     58  N        132.3770 -115.5920   11.3400 N.3   120  SER120     -0.1217
     59  CA       133.4890 -116.3250   11.9190 C.3   120  SER120      0.1889
     60  C        134.8660 -115.8360   11.5120 C.2   120  SER120      0.2288
     61  O        135.0680 -115.3880   10.3900 O.2   120  SER120     -0.2866
     62  CB       133.3860 -117.8010   11.5380 C.3   120  SER120      0.2089
     63  OG       132.2540 -118.4080   12.1170 O.3   120  SER120     -0.2183
     64  N        138.6530 -117.3560   11.3980 N.3   122  ILE122     -0.1245
     65  CA       139.4110 -118.5850   11.5270 C.3   122  ILE122      0.1561
     66  C        140.8960 -118.2610   11.4870 C.2   122  ILE122      0.2260
     67  O        141.3550 -117.5280   10.6180 O.2   122  ILE122     -0.2867
     68  CB       139.0700 -119.5890   10.3820 C.3   122  ILE122      0.0252
     69  CG1      137.8390 -120.4170   10.7430 C.3   122  ILE122      0.0019
     70  CG2      140.2060 -120.5820   10.2000 C.3   122  ILE122      0.0019
     71  CD1      136.5910 -119.6360   10.8140 C.3   122  ILE122      0.0001
     72  N        144.6790 -120.2810   11.7790 N.3   124  MET124     -0.1245
     73  CA       145.3030 -121.5930   11.7930 C.3   124  MET124      0.1570
     74  C        146.7240 -121.5370   12.3080 C.2   124  MET124      0.2261
     75  O        147.4820 -120.6250   11.9830 O.2   124  MET124     -0.2867
     76  CB       145.2880 -122.1750   10.3940 C.3   124  MET124      0.0387
     77  CG       143.8990 -122.2860    9.8280 C.3   124  MET124      0.0595
     78  SD       143.9230 -122.9520    8.1650 S.3   124  MET124     -0.1393
     79  CE       142.3150 -123.6760    8.0360 C.3   124  MET124      0.0692
     80  N        144.7550 -125.4070    2.2880 N.3   142  TYR142     -0.1241
     81  CA       143.5410 -125.6940    3.0250 C.3   142  TYR142      0.1605
     82  C        142.4080 -125.2730    2.1020 C.2   142  TYR142      0.2264
     83  O        142.2300 -124.0900    1.8340 O.2   142  TYR142     -0.2867
     84  CB       143.5120 -124.8840    4.3210 C.3   142  TYR142      0.0534
     85  CG       144.7030 -125.1420    5.2180 C.ar  142  TYR142     -0.0201
     86  CD1      144.7540 -126.2710    6.0350 C.ar  142  TYR142     -0.0009
     87  CD2      145.7900 -124.2730    5.2370 C.ar  142  TYR142     -0.0009
     88  CE1      145.8620 -126.5280    6.8490 C.ar  142  TYR142      0.0417
     89  CE2      146.9030 -124.5220    6.0480 C.ar  142  TYR142      0.0417
     90  CZ       146.9290 -125.6490    6.8490 C.ar  142  TYR142      0.1957
     91  OH       148.0150 -125.8910    7.6560 O.3   142  TYR142     -0.2866
     92  N        138.3080 -125.2240    1.2170 N.3   144  TYR144     -0.1241
     93  CA       136.9720 -125.3750    1.7680 C.3   144  TYR144      0.1605
     94  C        136.0790 -125.9560    0.6870 C.2   144  TYR144      0.2264
     95  O        135.8850 -125.3540   -0.3680 O.2   144  TYR144     -0.2867
     96  CB       136.4140 -124.0320    2.2200 C.3   144  TYR144      0.0534
     97  CG       134.9630 -124.1160    2.6240 C.ar  144  TYR144     -0.0201
     98  CD1      134.5130 -125.1400    3.4620 C.ar  144  TYR144     -0.0009
     99  CD2      134.0340 -123.1750    2.1760 C.ar  144  TYR144     -0.0009
    100  CE1      133.1760 -125.2240    3.8480 C.ar  144  TYR144      0.0417
    101  CE2      132.6920 -123.2490    2.5560 C.ar  144  TYR144      0.0417
    102  CZ       132.2710 -124.2740    3.3910 C.ar  144  TYR144      0.1957
    103  OH       130.9480 -124.3460    3.7630 O.3   144  TYR144     -0.2866
    104  N        137.2590 -121.7950   -2.1540 N.3   166  ALA166     -0.1245
    105  CA       138.2380 -120.9350   -1.5250 C.3   166  ALA166      0.1562
    106  C        139.3530 -121.7940   -0.9210 C.2   166  ALA166      0.2260
    107  O        139.0940 -122.7090   -0.1440 O.2   166  ALA166     -0.2867
    108  CB       137.5730 -120.0980   -0.4430 C.3   166  ALA166      0.0290
    109  N        143.4060 -121.6130    0.8760 N.3   168  VAL168     -0.1245
    110  CA       144.3710 -120.7510    1.5390 C.3   168  VAL168      0.1561
    111  C        145.6880 -121.5000    1.4920 C.2   168  VAL168      0.2260
    112  O        145.7650 -122.6410    1.9340 O.2   168  VAL168     -0.2867
    113  CB       144.0090 -120.5060    3.0260 C.3   168  VAL168      0.0252
    114  CG1      145.0770 -119.6770    3.6950 C.3   168  VAL168      0.0019
    115  CG2      142.6770 -119.8040    3.1250 C.3   168  VAL168      0.0019
    116  N        141.3580 -115.7150    8.0720 N.3   179  PHE179     -0.1241
    117  CA       140.3480 -115.1810    7.1690 C.3   179  PHE179      0.1605
    118  C        139.0110 -115.1560    7.8730 C.2   179  PHE179      0.2264
    119  O        138.8440 -115.7840    8.9090 O.2   179  PHE179     -0.2867
    120  CB       140.2530 -116.0390    5.8970 C.3   179  PHE179      0.0534
    121  CG       140.1000 -117.5040    6.1650 C.ar  179  PHE179     -0.0203
    122  CD1      141.2170 -118.3040    6.3450 C.ar  179  PHE179     -0.0042
    123  CD2      138.8430 -118.0740    6.2770 C.ar  179  PHE179     -0.0042
    124  CE1      141.0860 -119.6510    6.6340 C.ar  179  PHE179     -0.0003
    125  CE2      138.7050 -119.4260    6.5680 C.ar  179  PHE179     -0.0003
    126  CZ       139.8320 -120.2150    6.7470 C.ar  179  PHE179     -0.0000
    127  N        134.5880 -115.4150    7.6370 N.3   181  LEU181     -0.1245
    128  CA       133.5130 -116.1040    6.9570 C.3   181  LEU181      0.1561
    129  C        132.1830 -115.5230    7.3840 C.2   181  LEU181      0.2260
    130  O        131.9140 -115.4030    8.5800 O.2   181  LEU181     -0.2867
    131  CB       133.5390 -117.6160    7.2780 C.3   181  LEU181      0.0270
    132  CG       134.6860 -118.4430    6.7520 C.3   181  LEU181      0.0019
    133  CD1      134.8780 -119.6530    7.6160 C.3   181  LEU181      0.0001
    134  CD2      134.3950 -118.8010    5.3360 C.3   181  LEU181      0.0001
    135  N        126.9150 -118.3250    7.4800 N.3   184  LEU184     -0.1245
    136  CA       126.6830 -119.3250    6.4570 C.3   184  LEU184      0.1561
    137  C        125.3700 -120.0850    6.3550 C.2   184  LEU184      0.2260
    138  O        125.0960 -120.6680    5.3090 O.2   184  LEU184     -0.2867
    139  CB       127.8330 -120.3330    6.5020 C.3   184  LEU184      0.0270
    140  CG       129.2410 -119.7820    6.6440 C.3   184  LEU184      0.0019
    141  CD1      130.1680 -120.8300    7.1840 C.3   184  LEU184      0.0001
    142  CD2      129.6850 -119.2900    5.2880 C.3   184  LEU184      0.0001
    143  N        121.8660 -120.0170   13.4030 N.3   190  TYR190     -0.1241
    144  CA       122.3740 -121.3770   13.5220 C.3   190  TYR190      0.1605
    145  C        121.5900 -122.0500   14.6440 C.2   190  TYR190      0.2264
    146  O        121.2420 -121.4090   15.6330 O.2   190  TYR190     -0.2867
    147  CB       123.8440 -121.3750   13.9310 C.3   190  TYR190      0.0534
    148  CG       124.8270 -120.8730   12.9100 C.ar  190  TYR190     -0.0201
    149  CD1      124.8830 -121.4210   11.6280 C.ar  190  TYR190     -0.0009
    150  CD2      125.7490 -119.8790   13.2470 C.ar  190  TYR190     -0.0009
    151  CE1      125.8360 -120.9950   10.7080 C.ar  190  TYR190      0.0417
    152  CE2      126.7090 -119.4430   12.3340 C.ar  190  TYR190      0.0417
    153  CZ       126.7470 -120.0050   11.0650 C.ar  190  TYR190      0.1957
    154  OH       127.6870 -119.5720   10.1560 O.3   190  TYR190     -0.2866
    155  N        121.5710 -124.3350   17.7710 N.3   192  MET192     -0.1245
    156  CA       122.5220 -124.9060   18.7230 C.3   192  MET192      0.1570
    157  C        121.8920 -126.2210   19.1800 C.2   192  MET192      0.2261
    158  O        122.5840 -127.1680   19.5350 O.2   192  MET192     -0.2867
    159  CB       122.7310 -123.9800   19.9210 C.3   192  MET192      0.0387
    160  CG       123.3890 -122.6570   19.5820 C.3   192  MET192      0.0595
    161  SD       125.0390 -122.8430   18.8520 S.3   192  MET192     -0.1393
    162  CE       124.7180 -122.4590   17.1660 C.3   192  MET192      0.0692
    163  N        122.9210 -128.6020   10.6560 N.3   212  ASN212     -0.1240
    164  CA       124.2340 -127.9650   10.6610 C.3   212  ASN212      0.1653
    165  C        125.3440 -128.5320    9.7940 C.2   212  ASN212      0.2266
    166  O        126.4480 -128.7670   10.2850 O.2   212  ASN212     -0.2867
    167  CB       124.7440 -127.8850   12.0970 C.3   212  ASN212      0.1155
    168  CG       123.8030 -127.1250   13.0070 C.2   212  ASN212      0.2627
    169  OD1      122.6790 -126.7720   12.6190 O.2   212  ASN212     -0.2716
    170  ND2      124.2550 -126.8680   14.2330 N.am  212  ASN212     -0.0877
    171  N        128.2060 -127.9710    7.4180 N.3   214  MET214     -0.1245
    172  CA       129.0350 -126.8860    6.9210 C.3   214  MET214      0.1570
    173  C        129.9670 -127.3180    5.7920 C.2   214  MET214      0.2261
    174  O        130.7420 -126.5140    5.2710 O.2   214  MET214     -0.2867
    175  CB       129.8680 -126.3070    8.0630 C.3   214  MET214      0.0387
    176  CG       129.0500 -125.7060    9.1980 C.3   214  MET214      0.0595
    177  SD       127.7390 -124.6360    8.5880 S.3   214  MET214     -0.1393
    178  CE       128.5700 -123.0840    8.6710 C.3   214  MET214      0.0692
    179  N        136.5720 -129.6010    5.1190 N.3   217  LEU217     -0.1245
    180  CA       137.8430 -128.8900    5.0310 C.3   217  LEU217      0.1561
    181  C        138.8460 -129.9430    4.5510 C.2   217  LEU217      0.2260
    182  O        139.0830 -130.9370    5.2370 O.2   217  LEU217     -0.2867
    183  CB       138.2790 -128.3460    6.3990 C.3   217  LEU217      0.0270
    184  CG       139.6680 -127.6950    6.4650 C.3   217  LEU217      0.0019
    185  CD1      139.7410 -126.5400    5.4860 C.3   217  LEU217      0.0001
    186  CD2      139.9440 -127.1900    7.8710 C.3   217  LEU217      0.0001
    187  N        143.0670 -125.4690   14.2310 N.3   236  ILE236     -0.1245
    188  CA       142.1260 -124.4580   13.7540 C.3   236  ILE236      0.1561
    189  C        141.4990 -123.7390   14.9410 C.2   236  ILE236      0.2260
    190  O        140.9570 -124.3790   15.8360 O.2   236  ILE236     -0.2867
    191  CB       140.9670 -125.0840   12.9460 C.3   236  ILE236      0.0252
    192  CG1      141.4960 -126.1170   11.9430 C.3   236  ILE236      0.0019
    193  CG2      140.1780 -123.9920   12.2710 C.3   236  ILE236      0.0019
    194  CD1      142.2740 -125.5310   10.8080 C.3   236  ILE236      0.0001
    195  N        138.7330 -120.7760   16.2390 N.3   238  HIS238     -0.1241
    196  CA       137.5340 -120.0820   15.7950 C.3   238  HIS238      0.1621
    197  C        137.0500 -119.0260   16.7760 C.2   238  HIS238      0.2264
    198  O        137.0490 -119.2370   17.9840 O.2   238  HIS238     -0.2867
    199  CB       136.4180 -121.1010   15.5490 C.3   238  HIS238      0.0745
    200  CG       135.0900 -120.4870   15.2320 C.ar  238  HIS238      0.0817
    201  ND1      134.2520 -119.9750   16.2020 N.ar  238  HIS238     -0.2268
    202  CD2      134.4460 -120.3090   14.0540 C.ar  238  HIS238      0.1154
    203  CE1      133.1530 -119.5110   15.6340 C.ar  238  HIS238      0.1986
    204  NE2      133.2470 -119.7030   14.3310 N.ar  238  HIS238     -0.2212
@<TRIPOS>BOND
     1   104   105    1
     2   105   106    1
     3   105   108    1
     4   106   107    2
     5    95    94    2
     6    94    93    1
     7   109   110    1
     8    92    93    1
     9   111   110    1
    10   111   112    2
    11   110   113    1
    12    93    96    1
    13    83    82    2
    14    82    81    1
    15    99   101   ar
    16    99    97   ar
    17    96    97    1
    18    80    81    1
    19   101   102   ar
    20    97    98   ar
    21    81    84    1
    22   113   115    1
    23   113   114    1
    24   102   103    1
    25   102   100   ar
    26    98   100   ar
    27    84    85    1
    28   181   180    1
    29   181   182    2
    30   180   179    1
    31   180   183    1
    32    85    87   ar
    33    85    86   ar
    34    87    89   ar
    35   174   173    2
    36   142   140    1
    37   138   137    2
    38   134   132    1
    39   185   184    1
    40   173   172    1
    41   120   121    1
    42   120   117    1
    43    86    88   ar
    44    89    90   ar
    45   121   123   ar
    46   121   122   ar
    47   123   125   ar
    48   122   124   ar
    49   137   136    1
    50   183   184    1
    51   136   139    1
    52   136   135    1
    53   184   186    1
    54   139   140    1
    55   125   126   ar
    56   124   126   ar
    57   140   141    1
    58   132   131    1
    59   132   133    1
    60     9    10    1
    61    88    90   ar
    62    90    91    1
    63    30    28    1
    64   172   171    1
    65   172   175    1
    66   128   131    1
    67   128   129    1
    68   128   127    1
    69    12    11    2
    70   117   118    1
    71   117   116    1
    72   129   130    2
    73    11    10    1
    74   118   119    2
    75    28    27    1
    76    79    78    1
    77   175   176    1
    78    10    13    1
    79    78    77    1
    80   177   178    1
    81   177   176    1
    82    27    24    1
    83    27    29    1
    84    23    24    1
    85    13    14    1
    86    24    25    1
    87   165   166    2
    88   165   164    1
    89    77    76    1
    90   154   153    1
    91    70    68    1
    92    14    16   ar
    93    14    15   ar
    94    68    69    1
    95    68    65    1
    96    61    60    2
    97    76    73    1
    98    19    16   ar
    99    19    21   ar
   100    26    25    2
   101    67    66    2
   102   163   164    1
   103   164   167    1
   104   151   153   ar
   105   151   149   ar
   106    69    71    1
   107    25    31   am
   108   194   192    1
   109    16    18   ar
   110   153   152   ar
   111    21    22   ar
   112    15    17   ar
   113    58    59    1
   114    64    65    1
   115    66    65    1
   116    60    59    1
   117    62    59    1
   118    62    63    1
   119   149   148   ar
   120    72    73    1
   121    73    74    1
   122    50    49    2
   123   192   191    1
   124    75    74    2
   125    31    32    1
   126   167   168    1
   127    18    17   ar
   128    18    20   ar
   129   193   191    1
   130   152   150   ar
   131    22    20   ar
   132   169   168    2
   133    49    48    1
   134   148   150   ar
   135   148   147    1
   136   191   188    1
   137   168   170   am
   138    32    35    1
   139    32    33    1
   140   143   144    1
   141    35    36    1
   142   144   147    1
   143   144   145    1
   144    38    36   am
   145   188   187    1
   146   188   189    1
   147    47    48    1
   148    48    51    1
   149   202   204   ar
   150   202   200   ar
   151     8     6    1
   152    36    37    2
   153    33    34    2
   154    33    39   am
   155   204   203   ar
   156    53    55   ar
   157    53    52   ar
   158   145   146    2
   159    55    57   ar
   160   189   190    2
   161    51    52    1
   162    39    40    1
   163   200   199    1
   164   200   201   ar
   165     6     5    1
   166    52    54   ar
   167    46    44    1
   168    57    56   ar
   169    44    45    1
   170    44    43    1
   171   199   196    1
   172   203   201   ar
   173   196   195    1
   174   196   197    1
   175    54    56   ar
   176    40    43    1
   177    40    41    1
   178     4     3    2
   179     5     7    1
   180     5     2    1
   181     3     2    1
   182   197   198    2
   183   162   161    1
   184     2     1    1
   185    41    42    2
   186   155   156    1
   187   156   157    1
   188   156   159    1
   189   161   160    1
   190   157   158    2
   191   160   159    1
