@<TRIPOS>MOLECULE
tmp/1qjxA00.pdb
 204 191 0 0 0
SMALL
GASTEIGER

@<TRIPOS>ATOM
      1  N        139.1320 -125.5970   17.7630 N.3    77  ILE77      -0.1245
      2  CA       137.9670 -126.3920   17.4140 C.3    77  ILE77       0.1561
      3  C        138.3310 -127.6480   16.6440 C.2    77  ILE77       0.2260
      4  O        137.4700 -128.4850   16.3710 O.2    77  ILE77      -0.2867
      5  CB       136.9600 -125.5890   16.5690 C.3    77  ILE77       0.0252
      6  CG1      137.6090 -125.1520   15.2630 C.3    77  ILE77       0.0019
      7  CG2      136.4800 -124.3800   17.3320 C.3    77  ILE77       0.0019
      8  CD1      136.6120 -124.6780   14.2370 C.3    77  ILE77       0.0001
      9  N        138.1370 -133.1310    6.8660 N.3    96  TRP96      -0.1241
     10  CA       137.4050 -133.0420    8.1180 C.3    96  TRP96       0.1605
     11  C        136.0050 -132.4950    7.8860 C.2    96  TRP96       0.2264
     12  O        135.8360 -131.5170    7.1620 O.2    96  TRP96      -0.2867
     13  CB       138.1660 -132.1330    9.0890 C.3    96  TRP96       0.0550
     14  CG       137.4330 -131.8560   10.3620 C.ar   96  TRP96       0.0003
     15  CD1      136.9310 -132.7740   11.2350 C.ar   96  TRP96       0.0946
     16  CD2      137.1390 -130.5700   10.9190 C.ar   96  TRP96       0.0152
     17  NE1      136.3430 -132.1410   12.3050 N.ar   96  TRP96      -0.2442
     18  CE2      136.4570 -130.7890   12.1350 C.ar   96  TRP96       0.0810
     19  CE3      137.3850 -129.2550   10.5090 C.ar   96  TRP96       0.0012
     20  CZ2      136.0170 -129.7410   12.9450 C.ar   96  TRP96       0.0191
     21  CZ3      136.9490 -128.2120   11.3160 C.ar   96  TRP96       0.0001
     22  CH2      136.2730 -128.4630   12.5210 C.ar   96  TRP96       0.0015
     23  N        133.4600 -130.3200    8.9210 N.3    98  ILE98      -0.1231
     24  CA       133.4080 -129.1580    9.8000 C.3    98  ILE98       0.1692
     25  C        132.2670 -129.1130   10.8100 C.2    98  ILE98       0.2592
     26  O        131.1330 -129.4670   10.5050 O.2    98  ILE98      -0.2718
     27  CB       133.3840 -127.8700    8.9650 C.3    98  ILE98       0.0266
     28  CG1      134.5660 -127.8700    8.0020 C.3    98  ILE98       0.0019
     29  CG2      133.4770 -126.6640    9.8690 C.3    98  ILE98       0.0020
     30  CD1      134.4060 -126.9010    6.8620 C.3    98  ILE98       0.0001
     31  N        132.5920 -128.6880   12.0260 N.am   99  ASN99      -0.1960
     32  CA       131.6050 -128.5530   13.0960 C.3    99  ASN99       0.1819
     33  C        132.2670 -127.9010   14.3040 C.2    99  ASN99       0.2621
     34  O        133.4890 -127.8940   14.4120 O.2    99  ASN99      -0.2715
     35  CB       131.0550 -129.9190   13.4950 C.3    99  ASN99       0.1195
     36  CG       132.0650 -130.7450   14.2530 C.2    99  ASN99       0.2630
     37  OD1      132.2220 -130.5920   15.4640 O.2    99  ASN99      -0.2716
     38  ND2      132.7690 -131.6190   13.5460 N.am   99  ASN99      -0.0877
     39  N        131.4620 -127.3500   15.2070 N.am  100  LEU100     -0.1977
     40  CA       131.9930 -126.7130   16.4070 C.3   100  LEU100      0.1596
     41  C        131.6540 -127.5530   17.6240 C.2   100  LEU100      0.2287
     42  O        131.4990 -127.0200   18.7210 O.2   100  LEU100     -0.2864
     43  CB       131.3820 -125.3260   16.5970 C.3   100  LEU100      0.0297
     44  CG       131.5900 -124.3300   15.4620 C.3   100  LEU100      0.0022
     45  CD1      130.7810 -123.0720   15.7140 C.3   100  LEU100      0.0001
     46  CD2      133.0600 -124.0100   15.3530 C.3   100  LEU100      0.0001
     47  N        126.2630 -115.3590   13.8260 N.3   118  PHE118     -0.1241
     48  CA       127.5390 -114.6700   13.9110 C.3   118  PHE118      0.1605
     49  C        128.4100 -114.8950   12.6940 C.2   118  PHE118      0.2264
     50  O        128.1360 -115.7670   11.8770 O.2   118  PHE118     -0.2867
     51  CB       128.2960 -115.1420   15.1510 C.3   118  PHE118      0.0534
     52  CG       128.4540 -116.6350   15.2320 C.ar  118  PHE118     -0.0203
     53  CD1      129.4850 -117.2790   14.5520 C.ar  118  PHE118     -0.0042
     54  CD2      127.5670 -117.4030   15.9810 C.ar  118  PHE118     -0.0042
     55  CE1      129.6290 -118.6680   14.6190 C.ar  118  PHE118     -0.0003
     56  CE2      127.7040 -118.7930   16.0550 C.ar  118  PHE118     -0.0003
     57  CZ       128.7340 -119.4230   15.3710 C.ar  118  PHE118     -0.0000
     58  N        132.3920 -115.5960   11.3730 N.3   120  SER120     -0.1217
     59  CA       133.4880 -116.3500   11.9580 C.3   120  SER120      0.1889
     60  C        134.8670 -115.8790   11.5410 C.2   120  SER120      0.2288
     61  O        135.0750 -115.4750   10.4050 O.2   120  SER120     -0.2866
     62  CB       133.3630 -117.8340   11.5920 C.3   120  SER120      0.2089
     63  OG       132.2070 -118.4220   12.1550 O.3   120  SER120     -0.2183
     64  N        138.6200 -117.3670   11.3780 N.3   122  ILE122     -0.1245
     65  CA       139.3860 -118.5940   11.4980 C.3   122  ILE122      0.1561
     66  C        140.8730 -118.2770   11.4700 C.2   122  ILE122      0.2260
     67  O        141.3430 -117.5560   10.5960 O.2   122  ILE122     -0.2867
     68  CB       139.0550 -119.5820   10.3460 C.3   122  ILE122      0.0252
     69  CG1      137.8330 -120.4190   10.7100 C.3   122  ILE122      0.0019
     70  CG2      140.2110 -120.5330   10.1170 C.3   122  ILE122      0.0019
     71  CD1      136.5580 -119.6850   10.5710 C.3   122  ILE122      0.0001
     72  N        144.6670 -120.2430   11.7890 N.3   124  MET124     -0.1245
     73  CA       145.2920 -121.5500   11.7870 C.3   124  MET124      0.1570
     74  C        146.7050 -121.5260   12.3140 C.2   124  MET124      0.2261
     75  O        147.4760 -120.6210   12.0090 O.2   124  MET124     -0.2867
     76  CB       145.2820 -122.1130   10.3760 C.3   124  MET124      0.0387
     77  CG       143.8890 -122.3810    9.8840 C.3   124  MET124      0.0595
     78  SD       143.8960 -122.8170    8.1640 S.3   124  MET124     -0.1393
     79  CE       142.3150 -123.6410    7.9980 C.3   124  MET124      0.0692
     80  N        144.7990 -125.3970    2.2890 N.3   142  TYR142     -0.1241
     81  CA       143.5710 -125.6910    3.0150 C.3   142  TYR142      0.1605
     82  C        142.4500 -125.2570    2.0960 C.2   142  TYR142      0.2264
     83  O        142.3210 -124.0750    1.7970 O.2   142  TYR142     -0.2867
     84  CB       143.5200 -124.9110    4.3260 C.3   142  TYR142      0.0534
     85  CG       144.7240 -125.1450    5.1980 C.ar  142  TYR142     -0.0201
     86  CD1      144.7790 -126.2350    6.0560 C.ar  142  TYR142     -0.0009
     87  CD2      145.8240 -124.2960    5.1430 C.ar  142  TYR142     -0.0009
     88  CE1      145.9040 -126.4800    6.8410 C.ar  142  TYR142      0.0417
     89  CE2      146.9530 -124.5300    5.9220 C.ar  142  TYR142      0.0417
     90  CZ       146.9860 -125.6230    6.7670 C.ar  142  TYR142      0.1957
     91  OH       148.1020 -125.8660    7.5340 O.3   142  TYR142     -0.2866
     92  N        138.3250 -125.1850    1.2030 N.3   144  TYR144     -0.1241
     93  CA       136.9930 -125.3460    1.7500 C.3   144  TYR144      0.1605
     94  C        136.1050 -125.9620    0.6850 C.2   144  TYR144      0.2264
     95  O        135.9330 -125.4010   -0.3920 O.2   144  TYR144     -0.2867
     96  CB       136.4170 -124.0020    2.1690 C.3   144  TYR144      0.0534
     97  CG       134.9820 -124.0930    2.6090 C.ar  144  TYR144     -0.0201
     98  CD1      134.5690 -125.0860    3.4910 C.ar  144  TYR144     -0.0009
     99  CD2      134.0310 -123.2000    2.1330 C.ar  144  TYR144     -0.0009
    100  CE1      133.2450 -125.1870    3.8870 C.ar  144  TYR144      0.0417
    101  CE2      132.7000 -123.2930    2.5230 C.ar  144  TYR144      0.0417
    102  CZ       132.3150 -124.2880    3.4010 C.ar  144  TYR144      0.1957
    103  OH       131.0030 -124.3790    3.7990 O.3   144  TYR144     -0.2866
    104  N        137.2840 -121.8190   -2.2030 N.3   166  ALA166     -0.1245
    105  CA       138.2760 -120.9480   -1.6180 C.3   166  ALA166      0.1562
    106  C        139.3680 -121.8130   -1.0160 C.2   166  ALA166      0.2260
    107  O        139.0920 -122.7690   -0.2870 O.2   166  ALA166     -0.2867
    108  CB       137.6490 -120.0880   -0.5600 C.3   166  ALA166      0.0290
    109  N        143.4320 -121.6510    0.8130 N.3   168  VAL168     -0.1245
    110  CA       144.4060 -120.7940    1.4760 C.3   168  VAL168      0.1561
    111  C        145.7300 -121.5240    1.4420 C.2   168  VAL168      0.2260
    112  O        145.8160 -122.6660    1.8760 O.2   168  VAL168     -0.2867
    113  CB       144.0380 -120.5380    2.9460 C.3   168  VAL168      0.0252
    114  CG1      145.0930 -119.6890    3.5990 C.3   168  VAL168      0.0019
    115  CG2      142.7060 -119.8490    3.0240 C.3   168  VAL168      0.0019
    116  N        141.3520 -115.7830    8.0840 N.3   179  PHE179     -0.1241
    117  CA       140.3610 -115.2260    7.1780 C.3   179  PHE179      0.1605
    118  C        139.0190 -115.1910    7.8970 C.2   179  PHE179      0.2264
    119  O        138.8490 -115.8190    8.9390 O.2   179  PHE179     -0.2867
    120  CB       140.2590 -116.0700    5.9030 C.3   179  PHE179      0.0534
    121  CG       140.0510 -117.5290    6.1650 C.ar  179  PHE179     -0.0203
    122  CD1      138.7640 -118.0420    6.3310 C.ar  179  PHE179     -0.0042
    123  CD2      141.1440 -118.3880    6.2670 C.ar  179  PHE179     -0.0042
    124  CE1      138.5650 -119.3880    6.6100 C.ar  179  PHE179     -0.0003
    125  CE2      140.9650 -119.7260    6.5440 C.ar  179  PHE179     -0.0003
    126  CZ       139.6710 -120.2330    6.7150 C.ar  179  PHE179     -0.0000
    127  N        134.6360 -115.4110    7.6590 N.3   181  LEU181     -0.1245
    128  CA       133.5440 -116.0310    6.9370 C.3   181  LEU181      0.1561
    129  C        132.2510 -115.3760    7.3840 C.2   181  LEU181      0.2260
    130  O        132.0930 -115.0530    8.5500 O.2   181  LEU181     -0.2867
    131  CB       133.4660 -117.5100    7.2680 C.3   181  LEU181      0.0270
    132  CG       134.5760 -118.4280    6.7600 C.3   181  LEU181      0.0019
    133  CD1      134.6060 -119.6770    7.6400 C.3   181  LEU181      0.0001
    134  CD2      134.3250 -118.8590    5.3030 C.3   181  LEU181      0.0001
    135  N        126.9080 -118.3500    7.6150 N.3   184  LEU184     -0.1245
    136  CA       126.6750 -119.3280    6.5440 C.3   184  LEU184      0.1561
    137  C        125.3690 -120.0920    6.3970 C.2   184  LEU184      0.2260
    138  O        125.1590 -120.7540    5.3790 O.2   184  LEU184     -0.2867
    139  CB       127.7780 -120.3830    6.6000 C.3   184  LEU184      0.0270
    140  CG       129.2200 -119.8480    6.5960 C.3   184  LEU184      0.0019
    141  CD1      130.1660 -120.8520    7.2300 C.3   184  LEU184      0.0001
    142  CD2      129.6660 -119.5250    5.1650 C.3   184  LEU184      0.0001
    143  N        121.8870 -120.0040   13.4580 N.3   190  TYR190     -0.1241
    144  CA       122.3910 -121.3640   13.5610 C.3   190  TYR190      0.1605
    145  C        121.6050 -122.0320   14.6850 C.2   190  TYR190      0.2264
    146  O        121.2570 -121.3810   15.6730 O.2   190  TYR190     -0.2867
    147  CB       123.8640 -121.3820   13.9560 C.3   190  TYR190      0.0534
    148  CG       124.8380 -120.8920   12.9150 C.ar  190  TYR190     -0.0201
    149  CD1      124.8190 -121.3880   11.6130 C.ar  190  TYR190     -0.0009
    150  CD2      125.8170 -119.9580   13.2510 C.ar  190  TYR190     -0.0009
    151  CE1      125.7550 -120.9660   10.6690 C.ar  190  TYR190      0.0417
    152  CE2      126.7560 -119.5290   12.3170 C.ar  190  TYR190      0.0417
    153  CZ       126.7210 -120.0370   11.0290 C.ar  190  TYR190      0.1957
    154  OH       127.6520 -119.6030   10.1080 O.3   190  TYR190     -0.2866
    155  N        121.6190 -124.3150   17.7800 N.3   192  MET192     -0.1245
    156  CA       122.5760 -124.8970   18.7200 C.3   192  MET192      0.1570
    157  C        121.9330 -126.1990   19.1850 C.2   192  MET192      0.2261
    158  O        122.6070 -127.1340   19.6070 O.2   192  MET192     -0.2867
    159  CB       122.7990 -123.9830   19.9200 C.3   192  MET192      0.0387
    160  CG       123.3950 -122.6430   19.5650 C.3   192  MET192      0.0595
    161  SD       125.0430 -122.7890   18.8540 S.3   192  MET192     -0.1393
    162  CE       124.6820 -122.6280   17.1200 C.3   192  MET192      0.0692
    163  N        122.9330 -128.6290   10.6000 N.3   212  ASN212     -0.1240
    164  CA       124.2250 -127.9770   10.6090 C.3   212  ASN212      0.1653
    165  C        125.3280 -128.5120    9.7230 C.2   212  ASN212      0.2266
    166  O        126.4730 -128.6120   10.1620 O.2   212  ASN212     -0.2867
    167  CB       124.7210 -127.8810   12.0520 C.3   212  ASN212      0.1155
    168  CG       123.7790 -127.0790   12.9310 C.2   212  ASN212      0.2627
    169  OD1      122.6510 -126.7640   12.5360 O.2   212  ASN212     -0.2716
    170  ND2      124.2380 -126.7430   14.1320 N.am  212  ASN212     -0.0877
    171  N        128.1800 -128.0790    7.3760 N.3   214  MET214     -0.1245
    172  CA       129.0230 -126.9750    6.9310 C.3   214  MET214      0.1570
    173  C        129.9930 -127.3770    5.8300 C.2   214  MET214      0.2261
    174  O        130.7920 -126.5590    5.3670 O.2   214  MET214     -0.2867
    175  CB       129.8220 -126.4010    8.1020 C.3   214  MET214      0.0387
    176  CG       128.9810 -125.7430    9.1730 C.3   214  MET214      0.0595
    177  SD       127.6620 -124.7140    8.5070 S.3   214  MET214     -0.1393
    178  CE       128.4610 -123.1930    8.4230 C.3   214  MET214      0.0692
    179  N        136.6060 -129.6020    5.0910 N.3   217  LEU217     -0.1245
    180  CA       137.8580 -128.8710    4.9960 C.3   217  LEU217      0.1561
    181  C        138.8840 -129.9020    4.5220 C.2   217  LEU217      0.2260
    182  O        139.1350 -130.8900    5.2060 O.2   217  LEU217     -0.2867
    183  CB       138.2790 -128.3090    6.3580 C.3   217  LEU217      0.0270
    184  CG       139.6690 -127.6630    6.3430 C.3   217  LEU217      0.0019
    185  CD1      139.6700 -126.4910    5.3980 C.3   217  LEU217      0.0001
    186  CD2      140.0540 -127.2160    7.7280 C.3   217  LEU217      0.0001
    187  N        143.0610 -125.4830   14.2740 N.3   236  ILE236     -0.1245
    188  CA       142.1310 -124.4640   13.7990 C.3   236  ILE236      0.1561
    189  C        141.4650 -123.7400   14.9640 C.2   236  ILE236      0.2260
    190  O        140.8480 -124.3680   15.8290 O.2   236  ILE236     -0.2867
    191  CB       141.0030 -125.0770   12.9480 C.3   236  ILE236      0.0252
    192  CG1      141.5560 -126.1540   12.0160 C.3   236  ILE236      0.0019
    193  CG2      140.2890 -123.9900   12.1890 C.3   236  ILE236      0.0019
    194  CD1      142.2480 -125.6180   10.8190 C.3   236  ILE236      0.0001
    195  N        138.7310 -120.8060   16.2190 N.3   238  HIS238     -0.1241
    196  CA       137.5410 -120.0960   15.7860 C.3   238  HIS238      0.1621
    197  C        137.1090 -119.0300   16.7740 C.2   238  HIS238      0.2264
    198  O        137.2480 -119.1910   17.9880 O.2   238  HIS238     -0.2867
    199  CB       136.4020 -121.0950   15.5850 C.3   238  HIS238      0.0745
    200  CG       135.0830 -120.4590   15.2760 C.ar  238  HIS238      0.0817
    201  ND1      134.2470 -119.9650   16.2540 N.ar  238  HIS238     -0.2268
    202  CD2      134.4570 -120.2350   14.0960 C.ar  238  HIS238      0.1154
    203  CE1      133.1640 -119.4630   15.6880 C.ar  238  HIS238      0.1986
    204  NE2      133.2660 -119.6140   14.3810 N.ar  238  HIS238     -0.2212
@<TRIPOS>BOND
     1   104   105    1
     2   105   106    1
     3   105   108    1
     4   106   107    2
     5    95    94    2
     6    94    93    1
     7   109   110    1
     8    92    93    1
     9   111   110    1
    10   111   112    2
    11   110   113    1
    12    93    96    1
    13    83    82    2
    14    82    81    1
    15    99   101   ar
    16    99    97   ar
    17    96    97    1
    18    80    81    1
    19   101   102   ar
    20    97    98   ar
    21   113   115    1
    22   113   114    1
    23    81    84    1
    24   102   103    1
    25   102   100   ar
    26    98   100   ar
    27    84    85    1
    28   181   180    1
    29   181   182    2
    30   180   179    1
    31   180   183    1
    32    87    85   ar
    33    87    89   ar
    34   142   140    1
    35    85    86   ar
    36   134   132    1
    37   174   173    2
    38   138   137    2
    39   185   184    1
    40   173   172    1
    41   120   121    1
    42   120   117    1
    43    89    90   ar
    44    86    88   ar
    45   121   123   ar
    46   121   122   ar
    47   123   125   ar
    48   122   124   ar
    49   184   183    1
    50   184   186    1
    51   137   136    1
    52   136   139    1
    53   136   135    1
    54   125   126   ar
    55   140   139    1
    56   140   141    1
    57   124   126   ar
    58   132   131    1
    59   132   133    1
    60    90    88   ar
    61    90    91    1
    62    30    28    1
    63     9    10    1
    64   172   171    1
    65   172   175    1
    66   128   131    1
    67   128   129    1
    68   128   127    1
    69    12    11    2
    70   117   118    1
    71   117   116    1
    72   129   130    2
    73    11    10    1
    74   118   119    2
    75    79    78    1
    76    28    27    1
    77   175   176    1
    78    10    13    1
    79    78    77    1
    80   178   177    1
    81   177   176    1
    82    23    24    1
    83    27    24    1
    84    27    29    1
    85    13    14    1
    86   165   166    2
    87   165   164    1
    88    24    25    1
    89    77    76    1
    90   154   153    1
    91    70    68    1
    92    68    69    1
    93    68    65    1
    94    14    16   ar
    95    14    15   ar
    96    76    73    1
    97    61    60    2
    98    26    25    2
    99    19    16   ar
   100    19    21   ar
   101    71    69    1
   102    67    66    2
   103   163   164    1
   104   164   167    1
   105   151   153   ar
   106   151   149   ar
   107    25    31   am
   108   194   192    1
   109    16    18   ar
   110   153   152   ar
   111    15    17   ar
   112    21    22   ar
   113    58    59    1
   114    64    65    1
   115    66    65    1
   116    60    59    1
   117    62    59    1
   118    62    63    1
   119   149   148   ar
   120    73    72    1
   121    73    74    1
   122    50    49    2
   123    75    74    2
   124   192   191    1
   125    31    32    1
   126   167   168    1
   127    18    17   ar
   128    18    20   ar
   129   193   191    1
   130   152   150   ar
   131    22    20   ar
   132   169   168    2
   133    49    48    1
   134   148   150   ar
   135   148   147    1
   136   168   170   am
   137   191   188    1
   138    32    35    1
   139    32    33    1
   140   143   144    1
   141    35    36    1
   142    38    36   am
   143   144   147    1
   144   144   145    1
   145   188   187    1
   146   188   189    1
   147    47    48    1
   148    48    51    1
   149   202   204   ar
   150   202   200   ar
   151     8     6    1
   152    36    37    2
   153    33    34    2
   154    33    39   am
   155   204   203   ar
   156    53    55   ar
   157    53    52   ar
   158    55    57   ar
   159   145   146    2
   160   189   190    2
   161    51    52    1
   162    39    40    1
   163    52    54   ar
   164     6     5    1
   165   200   199    1
   166   200   201   ar
   167    46    44    1
   168    57    56   ar
   169    44    45    1
   170    44    43    1
   171   199   196    1
   172   203   201   ar
   173   196   195    1
   174   196   197    1
   175    54    56   ar
   176     4     3    2
   177    40    43    1
   178    40    41    1
   179     5     7    1
   180     5     2    1
   181     3     2    1
   182   197   198    2
   183   162   161    1
   184     2     1    1
   185    41    42    2
   186   155   156    1
   187   156   157    1
   188   156   159    1
   189   161   160    1
   190   157   158    2
   191   160   159    1
