@<TRIPOS>MOLECULE
tmp/1qjyA00.pdb
 204 191 0 0 0
SMALL
GASTEIGER

@<TRIPOS>ATOM
      1  N        139.1330 -125.6140   17.7370 N.3    77  ILE77      -0.1245
      2  CA       137.9670 -126.4150   17.3740 C.3    77  ILE77       0.1561
      3  C        138.3400 -127.6770   16.6030 C.2    77  ILE77       0.2260
      4  O        137.4750 -128.4970   16.3060 O.2    77  ILE77      -0.2867
      5  CB       136.9570 -125.6230   16.5080 C.3    77  ILE77       0.0252
      6  CG1      137.6050 -125.2070   15.1890 C.3    77  ILE77       0.0019
      7  CG2      136.4480 -124.4150   17.2600 C.3    77  ILE77       0.0019
      8  CD1      136.6210 -124.6500   14.1920 C.3    77  ILE77       0.0001
      9  N        138.1430 -133.0000    6.8600 N.3    96  TRP96      -0.1241
     10  CA       137.4090 -132.9190    8.1080 C.3    96  TRP96       0.1605
     11  C        136.0270 -132.3350    7.8670 C.2    96  TRP96       0.2264
     12  O        135.8810 -131.3270    7.1760 O.2    96  TRP96      -0.2867
     13  CB       138.1780 -132.0460    9.1130 C.3    96  TRP96       0.0550
     14  CG       137.4440 -131.7760   10.3950 C.ar   96  TRP96       0.0003
     15  CD1      136.9510 -132.7010   11.2710 C.ar   96  TRP96       0.0946
     16  CD2      137.1260 -130.4940   10.9470 C.ar   96  TRP96       0.0152
     17  NE1      136.3460 -132.0740   12.3350 N.ar   96  TRP96      -0.2442
     18  CE2      136.4380 -130.7180   12.1610 C.ar   96  TRP96       0.0810
     19  CE3      137.3560 -129.1750   10.5330 C.ar   96  TRP96       0.0012
     20  CZ2      135.9750 -129.6720   12.9680 C.ar   96  TRP96       0.0191
     21  CZ3      136.8960 -128.1330   11.3360 C.ar   96  TRP96       0.0001
     22  CH2      136.2130 -128.3900   12.5400 C.ar   96  TRP96       0.0015
     23  N        133.5140 -130.1840    8.9710 N.3    98  ILE98      -0.1231
     24  CA       133.4740 -129.0560    9.8870 C.3    98  ILE98       0.1692
     25  C        132.3250 -129.0230   10.8920 C.2    98  ILE98       0.2592
     26  O        131.1870 -129.3560   10.5680 O.2    98  ILE98      -0.2718
     27  CB       133.5100 -127.7390    9.0780 C.3    98  ILE98       0.0266
     28  CG1      134.6790 -127.7920    8.0880 C.3    98  ILE98       0.0019
     29  CG2      133.6750 -126.5510   10.0050 C.3    98  ILE98       0.0020
     30  CD1      134.7030 -126.6810    7.0800 C.3    98  ILE98       0.0001
     31  N        132.6510 -128.6170   12.1180 N.am   99  ASN99      -0.1960
     32  CA       131.6810 -128.4920   13.2040 C.3    99  ASN99       0.1819
     33  C        132.3400 -127.8640   14.4300 C.2    99  ASN99       0.2621
     34  O        133.5690 -127.8490   14.5470 O.2    99  ASN99      -0.2715
     35  CB       131.0840 -129.8570   13.5690 C.3    99  ASN99       0.1195
     36  CG       132.0510 -130.7340   14.3370 C.2    99  ASN99       0.2630
     37  OD1      132.1440 -130.6600   15.5680 O.2    99  ASN99      -0.2716
     38  ND2      132.7800 -131.5750   13.6140 N.am   99  ASN99      -0.0877
     39  N        131.5160 -127.3340   15.3300 N.am  100  LEU100     -0.1977
     40  CA       132.0030 -126.7020   16.5510 C.3   100  LEU100      0.1596
     41  C        131.6300 -127.5630   17.7440 C.2   100  LEU100      0.2287
     42  O        131.4750 -127.0580   18.8530 O.2   100  LEU100     -0.2864
     43  CB       131.3640 -125.3230   16.7240 C.3   100  LEU100      0.0297
     44  CG       131.5850 -124.2520   15.6540 C.3   100  LEU100      0.0022
     45  CD1      130.8550 -122.9810   16.0630 C.3   100  LEU100      0.0001
     46  CD2      133.0770 -123.9760   15.4900 C.3   100  LEU100      0.0001
     47  N        126.3010 -115.4120   13.8070 N.3   118  PHE118     -0.1241
     48  CA       127.5830 -114.7350   13.8670 C.3   118  PHE118      0.1605
     49  C        128.4470 -114.9840   12.6460 C.2   118  PHE118      0.2264
     50  O        128.1910 -115.8920   11.8590 O.2   118  PHE118     -0.2867
     51  CB       128.3460 -115.1900   15.1190 C.3   118  PHE118      0.0534
     52  CG       128.4860 -116.6910   15.2430 C.ar  118  PHE118     -0.0203
     53  CD1      129.5250 -117.3630   14.6080 C.ar  118  PHE118     -0.0042
     54  CD2      127.5790 -117.4280   15.9950 C.ar  118  PHE118     -0.0042
     55  CE1      129.6600 -118.7500   14.7190 C.ar  118  PHE118     -0.0003
     56  CE2      127.7050 -118.8170   16.1130 C.ar  118  PHE118     -0.0003
     57  CZ       128.7480 -119.4770   15.4730 C.ar  118  PHE118     -0.0000
     58  N        132.4000 -115.7050   11.3290 N.3   120  SER120     -0.1217
     59  CA       133.5030 -116.4160   11.9370 C.3   120  SER120      0.1889
     60  C        134.8740 -115.9500   11.4920 C.2   120  SER120      0.2288
     61  O        135.0690 -115.5240   10.3540 O.2   120  SER120     -0.2866
     62  CB       133.3620 -117.9160   11.6560 C.3   120  SER120      0.2089
     63  OG       132.1950 -118.4310   12.2680 O.3   120  SER120     -0.2183
     64  N        138.6260 -117.4960   11.3810 N.3   122  ILE122     -0.1245
     65  CA       139.3760 -118.7230   11.5390 C.3   122  ILE122      0.1561
     66  C        140.8540 -118.3570   11.4660 C.2   122  ILE122      0.2260
     67  O        141.2700 -117.5830   10.6080 O.2   122  ILE122     -0.2867
     68  CB       139.0120 -119.7700   10.4250 C.3   122  ILE122      0.0252
     69  CG1      137.7370 -120.5270   10.8090 C.3   122  ILE122      0.0019
     70  CG2      140.1220 -120.8110   10.2790 C.3   122  ILE122      0.0019
     71  CD1      136.4970 -119.6890   10.7890 C.3   122  ILE122      0.0001
     72  N        144.6840 -120.3440   11.7400 N.3   124  MET124     -0.1245
     73  CA       145.2930 -121.6610   11.7560 C.3   124  MET124      0.1570
     74  C        146.7230 -121.6220   12.2570 C.2   124  MET124      0.2261
     75  O        147.4980 -120.7440   11.8840 O.2   124  MET124     -0.2867
     76  CB       145.2420 -122.2610   10.3560 C.3   124  MET124      0.0387
     77  CG       143.8330 -122.3550    9.8100 C.3   124  MET124      0.0595
     78  SD       143.7850 -122.8130    8.0860 S.3   124  MET124     -0.1393
     79  CE       142.2930 -123.7460    8.0450 C.3   124  MET124      0.0692
     80  N        144.8520 -125.4310    2.2500 N.3   142  TYR142     -0.1241
     81  CA       143.6340 -125.7090    2.9870 C.3   142  TYR142      0.1605
     82  C        142.5150 -125.2710    2.0520 C.2   142  TYR142      0.2264
     83  O        142.4050 -124.0930    1.7190 O.2   142  TYR142     -0.2867
     84  CB       143.6050 -124.9040    4.2920 C.3   142  TYR142      0.0534
     85  CG       144.8060 -125.1540    5.1880 C.ar  142  TYR142     -0.0201
     86  CD1      144.8640 -126.2760    6.0160 C.ar  142  TYR142     -0.0009
     87  CD2      145.8920 -124.2760    5.1980 C.ar  142  TYR142     -0.0009
     88  CE1      145.9750 -126.5180    6.8340 C.ar  142  TYR142      0.0417
     89  CE2      147.0090 -124.5090    6.0130 C.ar  142  TYR142      0.0417
     90  CZ       147.0410 -125.6300    6.8260 C.ar  142  TYR142      0.1957
     91  OH       148.1300 -125.8590    7.6350 O.3   142  TYR142     -0.2866
     92  N        138.3830 -125.1420    1.2480 N.3   144  TYR144     -0.1241
     93  CA       137.0440 -125.2570    1.7980 C.3   144  TYR144      0.1605
     94  C        136.1480 -125.8590    0.7330 C.2   144  TYR144      0.2264
     95  O        135.9710 -125.2840   -0.3390 O.2   144  TYR144     -0.2867
     96  CB       136.4920 -123.8930    2.1900 C.3   144  TYR144      0.0534
     97  CG       135.0600 -123.9650    2.6550 C.ar  144  TYR144     -0.0201
     98  CD1      134.6630 -124.9240    3.5850 C.ar  144  TYR144     -0.0009
     99  CD2      134.0980 -123.0810    2.1680 C.ar  144  TYR144     -0.0009
    100  CE1      133.3480 -125.0020    4.0200 C.ar  144  TYR144      0.0417
    101  CE2      132.7770 -123.1510    2.5970 C.ar  144  TYR144      0.0417
    102  CZ       132.4100 -124.1120    3.5250 C.ar  144  TYR144      0.1957
    103  OH       131.1120 -124.1800    3.9680 O.3   144  TYR144     -0.2866
    104  N        137.3720 -121.8410   -2.2040 N.3   166  ALA166     -0.1245
    105  CA       138.3360 -120.9690   -1.5570 C.3   166  ALA166      0.1562
    106  C        139.4420 -121.7940   -0.9190 C.2   166  ALA166      0.2260
    107  O        139.1880 -122.6320   -0.0530 O.2   166  ALA166     -0.2867
    108  CB       137.6390 -120.1240   -0.5030 C.3   166  ALA166      0.0290
    109  N        143.4660 -121.6470    0.8350 N.3   168  VAL168     -0.1245
    110  CA       144.4320 -120.7930    1.5090 C.3   168  VAL168      0.1561
    111  C        145.7500 -121.5500    1.4510 C.2   168  VAL168      0.2260
    112  O        145.8220 -122.7050    1.8620 O.2   168  VAL168     -0.2867
    113  CB       144.0500 -120.5160    2.9870 C.3   168  VAL168      0.0252
    114  CG1      145.1650 -119.7420    3.6760 C.3   168  VAL168      0.0019
    115  CG2      142.7670 -119.7340    3.0560 C.3   168  VAL168      0.0019
    116  N        141.3940 -115.8660    8.0460 N.3   179  PHE179     -0.1241
    117  CA       140.3660 -115.3400    7.1590 C.3   179  PHE179      0.1605
    118  C        139.0280 -115.2860    7.8790 C.2   179  PHE179      0.2264
    119  O        138.8560 -115.8800    8.9430 O.2   179  PHE179     -0.2867
    120  CB       140.2530 -116.2100    5.8950 C.3   179  PHE179      0.0534
    121  CG       140.0610 -117.6740    6.1740 C.ar  179  PHE179     -0.0203
    122  CD1      138.7880 -118.2000    6.3210 C.ar  179  PHE179     -0.0042
    123  CD2      141.1550 -118.5180    6.3110 C.ar  179  PHE179     -0.0042
    124  CE1      138.6100 -119.5390    6.6040 C.ar  179  PHE179     -0.0003
    125  CE2      140.9820 -119.8630    6.5950 C.ar  179  PHE179     -0.0003
    126  CZ       139.7120 -120.3740    6.7430 C.ar  179  PHE179     -0.0000
    127  N        134.6460 -115.5640    7.6350 N.3   181  LEU181     -0.1245
    128  CA       133.5590 -116.2280    6.9500 C.3   181  LEU181      0.1561
    129  C        132.2500 -115.6050    7.3780 C.2   181  LEU181      0.2260
    130  O        132.0350 -115.3450    8.5690 O.2   181  LEU181     -0.2867
    131  CB       133.5250 -117.7360    7.2820 C.3   181  LEU181      0.0270
    132  CG       134.6720 -118.5750    6.7780 C.3   181  LEU181      0.0019
    133  CD1      134.7840 -119.7960    7.6390 C.3   181  LEU181      0.0001
    134  CD2      134.4340 -118.9200    5.3270 C.3   181  LEU181      0.0001
    135  N        127.0080 -118.4350    7.4860 N.3   184  LEU184     -0.1245
    136  CA       126.7550 -119.4360    6.4610 C.3   184  LEU184      0.1561
    137  C        125.4260 -120.1720    6.3380 C.2   184  LEU184      0.2260
    138  O        125.1610 -120.7630    5.2870 O.2   184  LEU184     -0.2867
    139  CB       127.8760 -120.4780    6.5230 C.3   184  LEU184      0.0270
    140  CG       129.3130 -119.9980    6.6810 C.3   184  LEU184      0.0019
    141  CD1      130.1840 -121.1160    7.2200 C.3   184  LEU184      0.0001
    142  CD2      129.8000 -119.5390    5.3280 C.3   184  LEU184      0.0001
    143  N        121.8970 -120.1150   13.4230 N.3   190  TYR190     -0.1241
    144  CA       122.3960 -121.4700   13.5500 C.3   190  TYR190      0.1605
    145  C        121.6170 -122.1060   14.6860 C.2   190  TYR190      0.2264
    146  O        121.2840 -121.4360   15.6640 O.2   190  TYR190     -0.2867
    147  CB       123.8710 -121.4680   13.9340 C.3   190  TYR190      0.0534
    148  CG       124.8190 -120.9440   12.8890 C.ar  190  TYR190     -0.0201
    149  CD1      124.8400 -121.4790   11.6040 C.ar  190  TYR190     -0.0009
    150  CD2      125.7490 -119.9570   13.2090 C.ar  190  TYR190     -0.0009
    151  CE1      125.7710 -121.0520   10.6670 C.ar  190  TYR190      0.0417
    152  CE2      126.6850 -119.5220   12.2810 C.ar  190  TYR190      0.0417
    153  CZ       126.6940 -120.0750   11.0120 C.ar  190  TYR190      0.1957
    154  OH       127.6390 -119.6670   10.0970 O.3   190  TYR190     -0.2866
    155  N        121.6190 -124.4020   17.8160 N.3   192  MET192     -0.1245
    156  CA       122.5830 -124.9700   18.7470 C.3   192  MET192      0.1570
    157  C        121.9340 -126.2700   19.2010 C.2   192  MET192      0.2261
    158  O        122.6140 -127.2290   19.5520 O.2   192  MET192     -0.2867
    159  CB       122.8170 -124.0380   19.9390 C.3   192  MET192      0.0387
    160  CG       123.4320 -122.6960   19.5740 C.3   192  MET192      0.0595
    161  SD       125.0800 -122.8210   18.8390 S.3   192  MET192     -0.1393
    162  CE       124.7360 -122.4830   17.1500 C.3   192  MET192      0.0692
    163  N        122.8840 -128.5990   10.6510 N.3   212  ASN212     -0.1240
    164  CA       124.1990 -127.9690   10.6310 C.3   212  ASN212      0.1653
    165  C        125.3030 -128.5620    9.7670 C.2   212  ASN212      0.2266
    166  O        126.3550 -128.9340   10.2820 O.2   212  ASN212     -0.2867
    167  CB       124.7240 -127.8460   12.0620 C.3   212  ASN212      0.1155
    168  CG       123.7380 -127.1590   12.9910 C.2   212  ASN212      0.2627
    169  OD1      122.6240 -126.8070   12.5910 O.2   212  ASN212     -0.2716
    170  ND2      124.1450 -126.9660   14.2430 N.am  212  ASN212     -0.0877
    171  N        128.1840 -127.8570    7.3990 N.3   214  MET214     -0.1245
    172  CA       129.0070 -126.7460    6.9390 C.3   214  MET214      0.1570
    173  C        130.0180 -127.1470    5.8700 C.2   214  MET214      0.2261
    174  O        130.8470 -126.3350    5.4560 O.2   214  MET214     -0.2867
    175  CB       129.7430 -126.1110    8.1210 C.3   214  MET214      0.0387
    176  CG       128.8350 -125.6580    9.2430 C.3   214  MET214      0.0595
    177  SD       127.4180 -124.7580    8.6080 S.3   214  MET214     -0.1393
    178  CE       128.0340 -123.1440    8.6350 C.3   214  MET214      0.0692
    179  N        136.6480 -129.5050    5.1650 N.3   217  LEU217     -0.1245
    180  CA       137.9190 -128.8000    5.0460 C.3   217  LEU217      0.1561
    181  C        138.9220 -129.8570    4.5890 C.2   217  LEU217      0.2260
    182  O        139.1540 -130.8420    5.2900 O.2   217  LEU217     -0.2867
    183  CB       138.3590 -128.2110    6.3960 C.3   217  LEU217      0.0270
    184  CG       139.7100 -127.4870    6.4020 C.3   217  LEU217      0.0019
    185  CD1      139.6140 -126.2220    5.5670 C.3   217  LEU217      0.0001
    186  CD2      140.1090 -127.1490    7.8300 C.3   217  LEU217      0.0001
    187  N        143.0490 -125.5580   14.2680 N.3   236  ILE236     -0.1245
    188  CA       142.1010 -124.5560   13.7800 C.3   236  ILE236      0.1561
    189  C        141.4430 -123.8140   14.9410 C.2   236  ILE236      0.2260
    190  O        140.8330 -124.4300   15.8130 O.2   236  ILE236     -0.2867
    191  CB       140.9680 -125.2000   12.9350 C.3   236  ILE236      0.0252
    192  CG1      141.5280 -126.2890   12.0110 C.3   236  ILE236      0.0019
    193  CG2      140.2420 -124.1270   12.1530 C.3   236  ILE236      0.0019
    194  CD1      142.4120 -125.7710   10.9090 C.3   236  ILE236      0.0001
    195  N        138.7290 -120.8050   16.2340 N.3   238  HIS238     -0.1241
    196  CA       137.5280 -120.1100   15.7960 C.3   238  HIS238      0.1621
    197  C        137.0560 -119.0480   16.7650 C.2   238  HIS238      0.2264
    198  O        137.0350 -119.2520   17.9750 O.2   238  HIS238     -0.2867
    199  CB       136.3980 -121.1150   15.5740 C.3   238  HIS238      0.0745
    200  CG       135.0740 -120.4810   15.2730 C.ar  238  HIS238      0.0817
    201  ND1      134.2480 -119.9750   16.2550 N.ar  238  HIS238     -0.2268
    202  CD2      134.4260 -120.2870   14.1010 C.ar  238  HIS238      0.1154
    203  CE1      133.1470 -119.4980   15.6980 C.ar  238  HIS238      0.1986
    204  NE2      133.2320 -119.6750   14.3930 N.ar  238  HIS238     -0.2212
@<TRIPOS>BOND
     1   104   105    1
     2   105   106    1
     3   105   108    1
     4   106   107    2
     5    95    94    2
     6    94    93    1
     7   109   110    1
     8    92    93    1
     9   111   110    1
    10   111   112    2
    11   110   113    1
    12    83    82    2
    13    93    96    1
    14    82    81    1
    15    99   101   ar
    16    99    97   ar
    17    96    97    1
    18    80    81    1
    19   101   102   ar
    20    97    98   ar
    21   113   115    1
    22   113   114    1
    23    81    84    1
    24   102   103    1
    25   102   100   ar
    26    98   100   ar
    27    84    85    1
    28   181   180    1
    29   181   182    2
    30   180   179    1
    31   180   183    1
    32    85    87   ar
    33    85    86   ar
    34    87    89   ar
    35   138   137    2
    36   134   132    1
    37   142   140    1
    38   174   173    2
    39   185   184    1
    40   173   172    1
    41   120   121    1
    42   120   117    1
    43    89    90   ar
    44    86    88   ar
    45   121   123   ar
    46   121   122   ar
    47   123   125   ar
    48   122   124   ar
    49   137   136    1
    50   183   184    1
    51   184   186    1
    52   136   139    1
    53   136   135    1
    54   139   140    1
    55   125   126   ar
    56   124   126   ar
    57   140   141    1
    58   132   131    1
    59   132   133    1
    60    90    88   ar
    61    90    91    1
    62     9    10    1
    63   172   171    1
    64   172   175    1
    65   128   131    1
    66   128   129    1
    67   128   127    1
    68    30    28    1
    69   117   118    1
    70   117   116    1
    71    12    11    2
    72   129   130    2
    73    11    10    1
    74   118   119    2
    75    79    78    1
    76    78    77    1
    77    28    27    1
    78    10    13    1
    79   175   176    1
    80   177   178    1
    81   177   176    1
    82    23    24    1
    83    27    24    1
    84    27    29    1
    85    13    14    1
    86   165   166    2
    87   165   164    1
    88    77    76    1
    89    24    25    1
    90   154   153    1
    91    70    68    1
    92    61    60    2
    93    76    73    1
    94    14    16   ar
    95    14    15   ar
    96    68    69    1
    97    68    65    1
    98    19    16   ar
    99    19    21   ar
   100    26    25    2
   101    67    66    2
   102   164   163    1
   103   164   167    1
   104   151   153   ar
   105   151   149   ar
   106    71    69    1
   107    25    31   am
   108   194   192    1
   109    16    18   ar
   110   153   152   ar
   111    15    17   ar
   112    58    59    1
   113    21    22   ar
   114    64    65    1
   115    66    65    1
   116    60    59    1
   117   149   148   ar
   118    62    59    1
   119    62    63    1
   120    72    73    1
   121    73    74    1
   122    50    49    2
   123    75    74    2
   124   192   191    1
   125   167   168    1
   126    31    32    1
   127   193   191    1
   128    18    17   ar
   129    18    20   ar
   130   152   150   ar
   131    22    20   ar
   132   169   168    2
   133    49    48    1
   134   148   150   ar
   135   148   147    1
   136   191   188    1
   137   168   170   am
   138    32    35    1
   139    32    33    1
   140   143   144    1
   141   144   147    1
   142   144   145    1
   143    35    36    1
   144    38    36   am
   145   188   187    1
   146   188   189    1
   147    47    48    1
   148    48    51    1
   149   202   204   ar
   150   202   200   ar
   151     8     6    1
   152    36    37    2
   153   204   203   ar
   154    33    34    2
   155    33    39   am
   156    53    55   ar
   157    53    52   ar
   158   145   146    2
   159    55    57   ar
   160   189   190    2
   161    51    52    1
   162     6     5    1
   163    52    54   ar
   164   200   199    1
   165   200   201   ar
   166    39    40    1
   167    57    56   ar
   168    46    44    1
   169   199   196    1
   170    44    45    1
   171    44    43    1
   172   203   201   ar
   173   196   195    1
   174   196   197    1
   175    54    56   ar
   176     4     3    2
   177     5     7    1
   178     5     2    1
   179    40    43    1
   180    40    41    1
   181     3     2    1
   182   197   198    2
   183   162   161    1
   184     2     1    1
   185    41    42    2
   186   155   156    1
   187   156   157    1
   188   156   159    1
   189   161   160    1
   190   157   158    2
   191   160   159    1
