@<TRIPOS>MOLECULE
tmp/1qk0A06.pdb
 101 96 0 0 0
SMALL
GASTEIGER

@<TRIPOS>ATOM
      1  N         20.9390   33.6110   46.5310 N.3    51  TRP51      -0.1241
      2  CA        20.7840   33.2400   45.1270 C.3    51  TRP51       0.1605
      3  C         20.0370   31.9290   44.9460 C.2    51  TRP51       0.2264
      4  O         20.3580   30.9180   45.5720 O.2    51  TRP51      -0.2867
      5  CB        22.1550   33.1460   44.4400 C.3    51  TRP51       0.0550
      6  CG        22.8490   34.4760   44.2840 C.ar   51  TRP51       0.0003
      7  CD1       23.0940   35.3900   45.2650 C.ar   51  TRP51       0.0946
      8  CD2       23.4180   35.0150   43.0820 C.ar   51  TRP51       0.0152
      9  NE1       23.7840   36.4640   44.7530 N.ar   51  TRP51      -0.2442
     10  CE2       23.9960   36.2580   43.4140 C.ar   51  TRP51       0.0810
     11  CE3       23.4970   34.5630   41.7530 C.ar   51  TRP51       0.0012
     12  CZ2       24.6460   37.0610   42.4690 C.ar   51  TRP51       0.0191
     13  CZ3       24.1430   35.3620   40.8140 C.ar   51  TRP51       0.0001
     14  CH2       24.7100   36.5980   41.1800 C.ar   51  TRP51       0.0015
     15  N         18.0220   33.3620   39.2870 N.3    85  TYR85      -0.1241
     16  CA        19.1360   33.0980   38.3910 C.3    85  TYR85       0.1605
     17  C         19.1680   31.6630   37.8680 C.2    85  TYR85       0.2264
     18  O         19.9900   30.8450   38.3000 O.2    85  TYR85      -0.2867
     19  CB        20.4290   33.4190   39.1540 C.3    85  TYR85       0.0534
     20  CG        21.7250   33.2060   38.4070 C.ar   85  TYR85      -0.0201
     21  CD1       21.9770   33.8540   37.1970 C.ar   85  TYR85      -0.0009
     22  CD2       22.7230   32.3900   38.9360 C.ar   85  TYR85      -0.0009
     23  CE1       23.2010   33.6960   36.5340 C.ar   85  TYR85       0.0417
     24  CE2       23.9430   32.2240   38.2840 C.ar   85  TYR85       0.0417
     25  CZ        24.1780   32.8780   37.0850 C.ar   85  TYR85       0.1957
     26  OH        25.3880   32.7080   36.4390 O.3    85  TYR85      -0.2866
     27  N         24.1250   32.3280   31.0660 N.3    91  ASP91      -0.1239
     28  CA        25.4730   32.8280   30.7960 C.3    91  ASP91       0.1674
     29  C         25.9390   32.4480   29.3830 C.2    91  ASP91       0.2266
     30  O         27.0290   31.9060   29.2020 O.2    91  ASP91      -0.2867
     31  CB        26.4300   32.2560   31.8440 C.3    91  ASP91       0.1410
     32  CG        25.8440   32.3060   33.2510 C.2    91  ASP91       0.3668
     33  OD1       25.7480   33.4100   33.8300 O.co2  91  ASP91      -0.2456
     34  OD2       25.4600   31.2380   33.7750 O.co2  91  ASP91      -0.2456
     35  N         29.6300   32.8330   28.2540 N.3    94  ALA94      -0.1245
     36  CA        30.6710   32.0250   28.8760 C.3    94  ALA94       0.1562
     37  C         30.8810   30.7730   28.0300 C.2    94  ALA94       0.2260
     38  O         29.9520   30.2900   27.3840 O.2    94  ALA94      -0.2867
     39  CB        30.2610   31.6380   30.2950 C.3    94  ALA94       0.0290
     40  N         31.5320   27.8880   29.2020 N.3    96  ALA96      -0.1231
     41  CA        30.8230   26.8410   29.9330 C.3    96  ALA96       0.1694
     42  C         30.0510   27.4250   31.1140 C.2    96  ALA96       0.2593
     43  O         30.6300   28.0560   32.0010 O.2    96  ALA96      -0.2718
     44  CB        31.8030   25.7870   30.4230 C.3    96  ALA96       0.0304
     45  N         28.7400   27.2210   31.1180 N.am   97  SER97      -0.1938
     46  CA        27.8960   27.7230   32.1980 C.3    97  SER97       0.2055
     47  C         27.5630   26.5930   33.1630 C.2    97  SER97       0.2643
     48  O         27.6140   25.4220   32.7900 O.2    97  SER97      -0.2714
     49  CB        26.5990   28.2970   31.6310 C.3    97  SER97       0.2130
     50  OG        25.6980   28.6420   32.6730 O.3    97  SER97      -0.2179
     51  N         27.2350   26.9440   34.4040 N.am   98  ASN98      -0.1971
     52  CA        26.8720   25.9460   35.3990 C.3    98  ASN98       0.1688
     53  C         25.3580   25.7940   35.4140 C.2    98  ASN98       0.2292
     54  O         24.8190   24.9420   36.1190 O.2    98  ASN98      -0.2864
     55  CB        27.3740   26.3500   36.7940 C.3    98  ASN98       0.1181
     56  CG        28.8840   26.2320   36.9300 C.2    98  ASN98       0.2629
     57  OD1       29.4700   25.2080   36.5710 O.2    98  ASN98      -0.2716
     58  ND2       29.5210   27.2740   37.4640 N.am   98  ASN98      -0.0877
     59  N         23.6250   38.6230   34.4540 N.3   137  ASP137     -0.1239
     60  CA        24.3340   38.0630   33.3080 C.3   137  ASP137      0.1674
     61  C         23.4180   37.5050   32.2210 C.2   137  ASP137      0.2266
     62  O         23.7310   36.4790   31.6130 O.2   137  ASP137     -0.2867
     63  CB        25.2980   36.9630   33.7790 C.3   137  ASP137      0.1410
     64  CG        26.3220   36.5760   32.7140 C.2   137  ASP137      0.3668
     65  OD1       26.6910   37.4510   31.9080 O.co2 137  ASP137     -0.2456
     66  OD2       26.7740   35.4060   32.6890 O.co2 137  ASP137     -0.2456
     67  N         27.7770   41.0530   41.4800 N.3   220  ALA220     -0.1245
     68  CA        28.9290   40.1600   41.4090 C.3   220  ALA220      0.1562
     69  C         30.1710   40.8300   40.8360 C.2   220  ALA220      0.2260
     70  O         31.1710   40.1650   40.5810 O.2   220  ALA220     -0.2867
     71  CB        28.5860   38.9240   40.5880 C.3   220  ALA220      0.0290
     72  N         36.5120   39.0440   35.7430 N.3   283  TRP283     -0.1241
     73  CA        35.4240   38.8880   36.7070 C.3   283  TRP283      0.1605
     74  C         35.5860   37.8220   37.7910 C.2   283  TRP283      0.2264
     75  O         34.8400   37.8250   38.7740 O.2   283  TRP283     -0.2867
     76  CB        34.1460   38.5600   35.9360 C.3   283  TRP283      0.0550
     77  CG        34.3190   37.3180   35.0960 C.ar  283  TRP283      0.0003
     78  CD1       34.8480   37.2450   33.8350 C.ar  283  TRP283      0.0946
     79  CD2       34.1330   35.9610   35.5280 C.ar  283  TRP283      0.0152
     80  NE1       35.0150   35.9290   33.4630 N.ar  283  TRP283     -0.2442
     81  CE2       34.5860   35.1210   34.4840 C.ar  283  TRP283      0.0810
     82  CE3       33.6340   35.3730   36.7000 C.ar  283  TRP283      0.0012
     83  CZ2       34.5550   33.7240   34.5760 C.ar  283  TRP283      0.0191
     84  CZ3       33.6050   33.9780   36.7920 C.ar  283  TRP283      0.0001
     85  CH2       34.0640   33.1730   35.7350 C.ar  283  TRP283      0.0015
     86  N         33.4450   32.6200   42.7240 N.3   317  ASP317     -0.1239
     87  CA        32.8720   32.9790   41.4240 C.3   317  ASP317      0.1674
     88  C         33.0840   31.8280   40.4420 C.2   317  ASP317      0.2266
     89  O         32.3340   31.6790   39.4730 O.2   317  ASP317     -0.2867
     90  CB        33.5540   34.2240   40.8310 C.3   317  ASP317      0.1410
     91  CG        33.3590   35.4750   41.6690 C.2   317  ASP317      0.3668
     92  OD1       32.2080   35.7970   42.0170 O.co2 317  ASP317     -0.2456
     93  OD2       34.3650   36.1510   41.9660 O.co2 317  ASP317     -0.2456
     94  N         36.7850   27.7990   33.7320 N.3   328  ASP328     -0.1239
     95  CA        36.8970   28.9910   32.8900 C.3   328  ASP328      0.1674
     96  C         38.2780   29.5910   33.1320 C.2   328  ASP328      0.2266
     97  O         38.6360   29.8980   34.2720 O.2   328  ASP328     -0.2867
     98  CB        35.8100   30.0140   33.2490 C.3   328  ASP328      0.1410
     99  CG        35.7670   31.1920   32.2760 C.2   328  ASP328      0.3668
    100  OD1       36.7600   31.9460   32.1910 O.co2 328  ASP328     -0.2456
    101  OD2       34.7380   31.3630   31.5920 O.co2 328  ASP328     -0.2456
@<TRIPOS>BOND
     1    38    37    2
     2    37    36    1
     3    35    36    1
     4    36    39    1
     5    40    41    1
     6    30    29    2
     7    29    28    1
     8    41    44    1
     9    41    42    1
    10    28    27    1
    11    28    31    1
    12    42    45   am
    13    42    43    2
    14    45    46    1
    15   101    99   ar
    16    62    61    2
    17    49    46    1
    18    49    50    1
    19    31    32    1
    20    65    64   ar
    21   100    99   ar
    22    46    47    1
    23    61    60    1
    24    99    98    1
    25    66    64   ar
    26    64    63    1
    27    48    47    2
    28    95    96    1
    29    95    98    1
    30    95    94    1
    31    96    97    2
    32    47    51   am
    33    32    34   ar
    34    32    33   ar
    35    60    63    1
    36    60    59    1
    37    80    78   ar
    38    80    81   ar
    39    78    77   ar
    40    51    52    1
    41    81    83   ar
    42    81    79   ar
    43    83    85   ar
    44    77    79   ar
    45    77    76    1
    46    52    53    1
    47    52    55    1
    48    53    54    2
    49    79    82   ar
    50    85    84   ar
    51    72    73    1
    52    76    73    1
    53    26    25    1
    54    23    25   ar
    55    23    21   ar
    56    57    56    2
    57    82    84   ar
    58    73    74    1
    59    55    56    1
    60    56    58   am
    61    25    24   ar
    62    21    20   ar
    63    74    75    2
    64    17    18    2
    65    17    16    1
    66    24    22   ar
    67    16    19    1
    68    16    15    1
    69    20    22   ar
    70    20    19    1
    71    89    88    2
    72    88    87    1
    73    70    69    2
    74    71    68    1
    75    13    14   ar
    76    13    11   ar
    77    90    87    1
    78    90    91    1
    79    69    68    1
    80    14    12   ar
    81    68    67    1
    82    87    86    1
    83    91    93   ar
    84    91    92   ar
    85    11     8   ar
    86    12    10   ar
    87     8    10   ar
    88     8     6   ar
    89    10     9   ar
    90     6     5    1
    91     6     7   ar
    92     5     2    1
    93     9     7   ar
    94     3     2    1
    95     3     4    2
    96     2     1    1
