@<TRIPOS>MOLECULE
tmp/1qk2A05.pdb
 169 169 0 0 0
SMALL
GASTEIGER

@<TRIPOS>ATOM
      1  N         20.3500   33.5190   46.8640 N.3    51  TRP51      -0.1241
      2  CA        20.1960   33.1220   45.4730 C.3    51  TRP51       0.1605
      3  C         19.4210   31.8270   45.2870 C.2    51  TRP51       0.2264
      4  O         19.7460   30.7990   45.8880 O.2    51  TRP51      -0.2867
      5  CB        21.5700   32.9980   44.8020 C.3    51  TRP51       0.0550
      6  CG        22.2910   34.3150   44.6460 C.ar   51  TRP51       0.0003
      7  CD1       22.6260   35.1800   45.6380 C.ar   51  TRP51       0.0946
      8  CD2       22.7810   34.8940   43.4270 C.ar   51  TRP51       0.0152
      9  NE1       23.2950   36.2650   45.1240 N.ar   51  TRP51      -0.2442
     10  CE2       23.4030   36.1170   43.7660 C.ar   51  TRP51       0.0810
     11  CE3       22.7520   34.5020   42.0820 C.ar   51  TRP51       0.0012
     12  CZ2       23.9960   36.9510   42.8100 C.ar   51  TRP51       0.0191
     13  CZ3       23.3390   35.3330   41.1310 C.ar   51  TRP51       0.0001
     14  CH2       23.9540   36.5440   41.5020 C.ar   51  TRP51       0.0015
     15  N         17.4430   33.2270   39.5490 N.3    85  TYR85      -0.1241
     16  CA        18.5920   32.9470   38.6930 C.3    85  TYR85       0.1605
     17  C         18.6380   31.4980   38.1950 C.2    85  TYR85       0.2264
     18  O         19.4810   30.7110   38.6290 O.2    85  TYR85      -0.2867
     19  CB        19.8550   33.2560   39.5010 C.3    85  TYR85       0.0534
     20  CG        21.1650   33.0890   38.7730 C.ar   85  TYR85      -0.0201
     21  CD1       21.4500   33.8340   37.6290 C.ar   85  TYR85      -0.0009
     22  CD2       22.1450   32.2260   39.2600 C.ar   85  TYR85      -0.0009
     23  CE1       22.6780   33.7240   36.9890 C.ar   85  TYR85       0.0417
     24  CE2       23.3780   32.1120   38.6300 C.ar   85  TYR85       0.0417
     25  CZ        23.6370   32.8660   37.4980 C.ar   85  TYR85       0.1957
     26  OH        24.8590   32.7870   36.8840 O.3    85  TYR85      -0.2866
     27  N         23.7680   32.0400   31.5700 N.3    91  ASP91      -0.1239
     28  CA        25.1260   32.5280   31.3580 C.3    91  ASP91       0.1674
     29  C         25.6400   32.0530   30.0020 C.2    91  ASP91       0.2266
     30  O         26.6490   31.3500   29.9210 O.2    91  ASP91      -0.2867
     31  CB        26.0260   32.0060   32.4750 C.3    91  ASP91       0.1410
     32  CG        25.3810   32.1440   33.8420 C.2    91  ASP91       0.3668
     33  OD1       25.2060   33.2930   34.3100 O.co2  91  ASP91      -0.2456
     34  OD2       25.0310   31.1000   34.4430 O.co2  91  ASP91      -0.2456
     35  N         27.1970   33.5350   27.5900 N.3    93  ALA93      -0.1231
     36  CA        28.5260   33.9800   27.1840 C.3    93  ALA93       0.1694
     37  C         29.6480   33.3890   28.0290 C.2    93  ALA93       0.2591
     38  O         30.8190   33.4810   27.6650 O.2    93  ALA93      -0.2718
     39  CB        28.5940   35.5000   27.2220 C.3    93  ALA93       0.0304
     40  N         29.2910   32.7810   29.1530 N.am   94  ALA94      -0.1980
     41  CA        30.2790   32.1850   30.0430 C.3    94  ALA94       0.1597
     42  C         30.8940   30.9280   29.4320 C.2    94  ALA94       0.2287
     43  O         30.1920   30.1100   28.8340 O.2    94  ALA94      -0.2864
     44  CB        29.6350   31.8540   31.3850 C.3    94  ALA94       0.0319
     45  N         20.4260   37.7400   36.9060 N.3   136  PRO136     -0.2102
     46  CA        21.6920   38.4280   36.6380 C.3   136  PRO136      0.1504
     47  C         22.3740   37.7580   35.4480 C.2   136  PRO136      0.2575
     48  O         22.1100   36.5910   35.1530 O.2   136  PRO136     -0.2718
     49  CB        22.4800   38.2110   37.9260 C.3   136  PRO136      0.0282
     50  CG        21.3960   38.1850   38.9720 C.3   136  PRO136      0.0208
     51  CD        20.3390   37.3230   38.3170 C.3   136  PRO136      0.0893
     52  N         23.2310   38.5010   34.7590 N.am  137  ASP137     -0.1974
     53  CA        23.9750   37.9610   33.6280 C.3   137  ASP137      0.1708
     54  C         23.0990   37.2780   32.5800 C.2   137  ASP137      0.2293
     55  O         23.3740   36.1460   32.1730 O.2   137  ASP137     -0.2864
     56  CB        25.0390   36.9810   34.1470 C.3   137  ASP137      0.1436
     57  CG        25.9700   36.4730   33.0490 C.2   137  ASP137      0.3671
     58  OD1       26.3610   37.2720   32.1720 O.co2 137  ASP137     -0.2456
     59  OD2       26.3290   35.2760   33.0760 O.co2 137  ASP137     -0.2456
     60  N         23.8950   40.1470   28.1610 N.3   141  ASN141     -0.1240
     61  CA        24.5790   39.4000   27.1110 C.3   141  ASN141      0.1653
     62  C         23.9260   39.6530   25.7580 C.2   141  ASN141      0.2266
     63  O         24.5990   39.6870   24.7290 O.2   141  ASN141     -0.2867
     64  CB        24.5370   37.8990   27.4080 C.3   141  ASN141      0.1155
     65  CG        25.4470   37.5020   28.5470 C.2   141  ASN141      0.2627
     66  OD1       26.6680   37.6470   28.4620 O.2   141  ASN141     -0.2716
     67  ND2       24.8580   36.9950   29.6250 N.am  141  ASN141     -0.0877
     68  N         26.7860   40.4080   23.4500 N.3   145  ASN145     -0.1240
     69  CA        27.3000   39.1010   23.0660 C.3   145  ASN145      0.1653
     70  C         26.4540   38.2720   22.1100 C.2   145  ASN145      0.2266
     71  O         26.4430   37.0430   22.1910 O.2   145  ASN145     -0.2867
     72  CB        27.6080   38.2870   24.3240 C.3   145  ASN145      0.1155
     73  CG        28.4620   39.0590   25.3210 C.2   145  ASN145      0.2627
     74  OD1       29.3220   39.8520   24.9340 O.2   145  ASN145     -0.2716
     75  ND2       28.2320   38.8240   26.6060 N.am  145  ASN145     -0.0877
     76  N         26.6480   46.2820   34.4940 N.3   182  HIS182     -0.1241
     77  CA        27.3220   47.3220   35.2560 C.3   182  HIS182      0.1621
     78  C         28.0210   48.3120   34.3360 C.2   182  HIS182      0.2264
     79  O         28.0970   48.1030   33.1250 O.2   182  HIS182     -0.2867
     80  CB        28.3330   46.6790   36.2030 C.3   182  HIS182      0.0745
     81  CG        29.3830   45.8700   35.5060 C.ar  182  HIS182      0.0817
     82  ND1       30.5200   46.4340   34.9670 N.ar  182  HIS182     -0.2268
     83  CD2       29.4600   44.5430   35.2460 C.ar  182  HIS182      0.1154
     84  CE1       31.2550   45.4870   34.4050 C.ar  182  HIS182      0.1986
     85  NE2       30.6320   44.3320   34.5600 N.ar  182  HIS182     -0.2212
     86  N         31.0170   48.9270   33.4830 N.3   184  GLY184     -0.1210
     87  CA        31.9970   48.3970   32.5470 C.3   184  GLY184      0.1956
     88  C         31.4180   47.5260   31.4550 C.2   184  GLY184      0.2611
     89  O         32.1050   47.1720   30.4910 O.2   184  GLY184     -0.2717
     90  N         30.1470   47.1730   31.6010 N.am  185  TRP185     -0.1976
     91  CA        29.4850   46.3390   30.6140 C.3   185  TRP185      0.1640
     92  C         28.5860   47.1840   29.7130 C.2   185  TRP185      0.2290
     93  O         28.8890   47.3980   28.5390 O.2   185  TRP185     -0.2864
     94  CB        28.6420   45.2630   31.3100 C.3   185  TRP185      0.0576
     95  CG        28.2630   44.1100   30.4270 C.ar  185  TRP185      0.0006
     96  CD1       28.2950   44.0670   29.0580 C.ar  185  TRP185      0.0946
     97  CD2       27.7740   42.8340   30.8580 C.ar  185  TRP185      0.0152
     98  NE1       27.8540   42.8420   28.6110 N.ar  185  TRP185     -0.2442
     99  CE2       27.5280   42.0670   29.6930 C.ar  185  TRP185      0.0810
    100  CE3       27.5190   42.2650   32.1110 C.ar  185  TRP185      0.0012
    101  CZ2       27.0380   40.7580   29.7500 C.ar  185  TRP185      0.0191
    102  CZ3       27.0320   40.9600   32.1670 C.ar  185  TRP185      0.0001
    103  CH2       26.8000   40.2220   30.9920 C.ar  185  TRP185      0.0015
    104  N         29.3830   51.7730   28.8890 N.3   188  TRP188     -0.1241
    105  CA        30.0360   52.3870   27.7400 C.3   188  TRP188      0.1605
    106  C         28.9830   53.1050   26.9050 C.2   188  TRP188      0.2264
    107  O         27.9220   52.5560   26.6380 O.2   188  TRP188     -0.2867
    108  CB        30.7370   51.3230   26.8930 C.3   188  TRP188      0.0550
    109  CG        31.8770   50.6600   27.5920 C.ar  188  TRP188      0.0003
    110  CD1       31.8070   49.6350   28.4940 C.ar  188  TRP188      0.0946
    111  CD2       33.2600   51.0020   27.4800 C.ar  188  TRP188      0.0152
    112  NE1       33.0640   49.3170   28.9490 N.ar  188  TRP188     -0.2442
    113  CE2       33.9770   50.1420   28.3440 C.ar  188  TRP188      0.0810
    114  CE3       33.9690   51.9580   26.7320 C.ar  188  TRP188      0.0012
    115  CZ2       35.3670   50.2070   28.4850 C.ar  188  TRP188      0.0191
    116  CZ3       35.3580   52.0230   26.8720 C.ar  188  TRP188      0.0001
    117  CH2       36.0390   51.1510   27.7430 C.ar  188  TRP188      0.0015
    118  N         25.7760   43.6010   40.0210 N.3   219  VAL219     -0.1231
    119  CA        25.5250   42.3420   40.7120 C.3   219  VAL219      0.1692
    120  C         26.6850   41.3840   40.5020 C.2   219  VAL219      0.2592
    121  O         27.0370   41.0580   39.3710 O.2   219  VAL219     -0.2718
    122  CB        24.2280   41.6740   40.2300 C.3   219  VAL219      0.0266
    123  CG1       24.0760   40.2940   40.8730 C.3   219  VAL219      0.0020
    124  CG2       23.0440   42.5520   40.5940 C.3   219  VAL219      0.0020
    125  N         27.2750   40.9490   41.6110 N.am  220  ALA220     -0.1966
    126  CA        28.4100   40.0390   41.5890 C.3   220  ALA220      0.1728
    127  C         29.6490   40.7020   41.0030 C.2   220  ALA220      0.2616
    128  O         30.6220   40.0300   40.6750 O.2   220  ALA220     -0.2715
    129  CB        28.0640   38.7710   40.8030 C.3   220  ALA220      0.0334
    130  N         29.6230   42.0200   40.8490 N.am  221  ASN221     -0.1972
    131  CA        30.8070   42.6710   40.3230 C.3   221  ASN221      0.1688
    132  C         31.4860   43.5290   41.3850 C.2   221  ASN221      0.2292
    133  O         31.1370   43.4520   42.5620 O.2   221  ASN221     -0.2864
    134  CB        30.5110   43.4860   39.0650 C.3   221  ASN221      0.1181
    135  CG        31.6990   43.4940   38.1070 C.2   221  ASN221      0.2629
    136  OD1       31.8340   42.6080   37.2550 O.2   221  ASN221     -0.2716
    137  ND2       32.5850   44.4710   38.2710 N.am  221  ASN221     -0.0877
    138  N         39.3000   45.2060   32.9880 N.3   280  TRP280     -0.1227
    139  CA        37.9630   45.4410   33.5190 C.3   280  TRP280      0.1737
    140  C         37.0720   44.2040   33.3610 C.2   280  TRP280      0.2596
    141  O         36.2390   43.9130   34.2200 O.2   280  TRP280     -0.2718
    142  CB        37.3270   46.6400   32.8060 C.3   280  TRP280      0.0564
    143  CG        36.3350   47.3970   33.6300 C.ar  280  TRP280      0.0003
    144  CD1       35.8520   47.0530   34.8640 C.ar  280  TRP280      0.0946
    145  CD2       35.6970   48.6330   33.2820 C.ar  280  TRP280      0.0152
    146  NE1       34.9540   47.9970   35.3020 N.ar  280  TRP280     -0.2442
    147  CE2       34.8390   48.9760   34.3520 C.ar  280  TRP280      0.0810
    148  CE3       35.7640   49.4820   32.1680 C.ar  280  TRP280      0.0012
    149  CZ2       34.0520   50.1340   34.3410 C.ar  280  TRP280      0.0191
    150  CZ3       34.9800   50.6340   32.1570 C.ar  280  TRP280      0.0001
    151  CH2       34.1360   50.9470   33.2390 C.ar  280  TRP280      0.0015
    152  N         37.2670   43.4740   32.2650 N.am  281  GLY281     -0.1957
    153  CA        36.4750   42.2870   31.9950 C.3   281  GLY281      0.1869
    154  C         36.7510   41.0860   32.8880 C.2   281  GLY281      0.2309
    155  O         36.0430   40.0800   32.8110 O.2   281  GLY281     -0.2863
    156  N         36.2620   39.1210   35.8640 N.3   283  TRP283     -0.1241
    157  CA        35.2240   39.0480   36.8890 C.3   283  TRP283      0.1605
    158  C         35.3450   37.9470   37.9420 C.2   283  TRP283      0.2264
    159  O         34.6560   37.9940   38.9580 O.2   283  TRP283     -0.2867
    160  CB        33.8650   38.8750   36.2060 C.3   283  TRP283      0.0550
    161  CG        33.8490   37.6820   35.2760 C.ar  283  TRP283      0.0003
    162  CD1       34.0940   37.6880   33.9340 C.ar  283  TRP283      0.0946
    163  CD2       33.6580   36.3040   35.6410 C.ar  283  TRP283      0.0152
    164  NE1       34.0730   36.4030   33.4390 N.ar  283  TRP283     -0.2442
    165  CE2       33.8060   35.5350   34.4660 C.ar  283  TRP283      0.0810
    166  CE3       33.3800   35.6470   36.8500 C.ar  283  TRP283      0.0012
    167  CZ2       33.6850   34.1400   34.4600 C.ar  283  TRP283      0.0191
    168  CZ3       33.2600   34.2590   36.8470 C.ar  283  TRP283      0.0001
    169  CH2       33.4130   33.5220   35.6560 C.ar  283  TRP283      0.0015
@<TRIPOS>BOND
     1    70    71    2
     2    70    69    1
     3    69    68    1
     4    69    72    1
     5    72    73    1
     6    63    62    2
     7    74    73    2
     8    73    75   am
     9    62    61    1
    10   107   106    2
    11   114   116   ar
    12   114   111   ar
    13   116   117   ar
    14   108   109    1
    15   108   105    1
    16   106   105    1
    17    61    64    1
    18    61    60    1
    19    36    39    1
    20    36    35    1
    21    36    37    1
    22    64    65    1
    23   111   109   ar
    24   111   113   ar
    25   109   110   ar
    26    38    37    2
    27   105   104    1
    28   117   115   ar
    29    37    40   am
    30   113   115   ar
    31   113   112   ar
    32    66    65    2
    33   110   112   ar
    34    93    92    2
    35    65    67   am
    36    98    96   ar
    37    98    99   ar
    38    43    42    2
    39    96    95   ar
    40    40    41    1
    41    42    41    1
    42    99   101   ar
    43    99    97   ar
    44    92    91    1
    45   101   103   ar
    46    30    29    2
    47    29    28    1
    48    41    44    1
    49    95    97   ar
    50    95    94    1
    51    89    88    2
    52    91    94    1
    53    91    90    1
    54    97   100   ar
    55   103   102   ar
    56    28    27    1
    57    28    31    1
    58    88    90   am
    59    88    87    1
    60   153   152    1
    61   153   154    1
    62   100   102   ar
    63   150   148   ar
    64   150   151   ar
    65   148   145   ar
    66    58    57   ar
    67    55    54    2
    68   152   140   am
    69    31    32    1
    70    87    86    1
    71    54    53    1
    72   142   139    1
    73   142   143    1
    74   155   154    2
    75   138   139    1
    76    57    59   ar
    77    57    56    1
    78    79    78    2
    79   151   149   ar
    80   145   143   ar
    81   145   147   ar
    82   140   139    1
    83   140   141    2
    84   164   162   ar
    85   164   165   ar
    86    53    56    1
    87    53    52    1
    88   143   144   ar
    89    32    33   ar
    90    32    34   ar
    91   162   161   ar
    92    78    77    1
    93   149   147   ar
    94   147   146   ar
    95    84    85   ar
    96    84    82   ar
    97   167   165   ar
    98   167   169   ar
    99   165   163   ar
   100    76    77    1
   101    85    83   ar
   102    52    47   am
   103   144   146   ar
   104    82    81   ar
   105    48    47    2
   106    83    81   ar
   107    77    80    1
   108   161   163   ar
   109   161   160    1
   110    47    46    1
   111    81    80    1
   112   163   166   ar
   113   169   168   ar
   114   156   157    1
   115   160   157    1
   116    46    45    1
   117    46    49    1
   118   168   166   ar
   119    26    25    1
   120   157   158    1
   121    45    51    1
   122    23    25   ar
   123    23    21   ar
   124   136   135    2
   125    25    24   ar
   126    21    20   ar
   127    49    50    1
   128   158   159    2
   129   135   137   am
   130   135   134    1
   131    17    18    2
   132    17    16    1
   133    51    50    1
   134    24    22   ar
   135    16    19    1
   136    16    15    1
   137    20    22   ar
   138    20    19    1
   139   134   131    1
   140   121   120    2
   141   118   119    1
   142   122   124    1
   143   122   119    1
   144   122   123    1
   145   131   130    1
   146   131   132    1
   147   120   119    1
   148   120   125   am
   149   128   127    2
   150   129   126    1
   151   130   127   am
   152   127   126    1
   153    13    14   ar
   154    13    11   ar
   155   132   133    2
   156    14    12   ar
   157   126   125    1
   158    11     8   ar
   159    12    10   ar
   160     8    10   ar
   161     8     6   ar
   162    10     9   ar
   163     6     5    1
   164     6     7   ar
   165     5     2    1
   166     9     7   ar
   167     3     2    1
   168     3     4    2
   169     2     1    1
