@<TRIPOS>MOLECULE
tmp/1qk5A01.pdb
 123 117 0 0 0
SMALL
GASTEIGER

@<TRIPOS>ATOM
      1  N         19.8860   19.4040   57.0180 N.3    77  ILE77      -0.1231
      2  CA        20.5240   18.7890   58.1940 C.3    77  ILE77       0.1692
      3  C         22.0530   18.9170   58.0750 C.2    77  ILE77       0.2592
      4  O         22.6680   18.2230   57.2690 O.2    77  ILE77      -0.2718
      5  CB        20.2030   17.2850   58.3160 C.3    77  ILE77       0.0266
      6  CG1       18.6940   17.0490   58.3620 C.3    77  ILE77       0.0019
      7  CG2       20.8800   16.7350   59.5550 C.3    77  ILE77       0.0020
      8  CD1       17.8890   17.9470   59.2400 C.3    77  ILE77       0.0001
      9  N         22.6820   19.7880   58.8440 N.am   78  LEU78      -0.1966
     10  CA        24.1350   20.0260   58.7260 C.3    78  LEU78       0.1728
     11  C         24.9220   19.0180   59.5440 C.2    78  LEU78       0.2616
     12  O         24.3510   18.5170   60.5440 O.2    78  LEU78      -0.2715
     13  CB        24.5150   21.4310   59.2420 C.3    78  LEU78       0.0311
     14  CG        23.9650   22.5830   58.3670 C.3    78  LEU78       0.0022
     15  CD1       23.9870   23.9000   59.1350 C.3    78  LEU78       0.0001
     16  CD2       24.6560   22.6960   57.0280 C.3    78  LEU78       0.0001
     17  N         26.1860   18.7640   59.2060 N.am   79  LYS79      -0.1963
     18  CA        26.8150   19.3650   58.0560 C.3    79  LYS79       0.1728
     19  C         26.6310   18.5720   56.7810 C.2    79  LYS79       0.2616
     20  O         26.7620   19.1420   55.6740 O.2    79  LYS79      -0.2715
     21  CB        28.3810   19.2490   58.2910 C.3    79  LYS79       0.0311
     22  CG        28.7930   20.0350   59.5670 C.3    79  LYS79       0.0038
     23  CD        30.3350   20.0840   59.5540 C.3    79  LYS79       0.0206
     24  CE        30.8670   20.5460   60.9110 C.3    79  LYS79       0.1093
     25  NZ        32.3630   20.4940   60.9140 N.3    79  LYS79      -0.1314
     26  N         26.3280   17.2890   56.9490 N.am   80  GLY80      -0.1955
     27  CA        26.3450   16.3770   55.8030 C.3    80  GLY80       0.1869
     28  C         25.5100   16.6820   54.5840 C.2    80  GLY80       0.2309
     29  O         25.9130   16.3270   53.4620 O.2    80  GLY80      -0.2863
     30  N         21.3770   21.2140   63.0300 N.3   114  ARG114     -0.1231
     31  CA        22.6050   20.4480   63.0520 C.3   114  ARG114      0.1694
     32  C         22.3180   19.2440   63.9490 C.2   114  ARG114      0.2592
     33  O         21.8910   19.4600   65.0730 O.2   114  ARG114     -0.2718
     34  CB        23.7180   21.3520   63.5470 C.3   114  ARG114      0.0321
     35  CG        24.7310   20.8630   64.5530 C.3   114  ARG114      0.0489
     36  CD        25.5450   19.7020   64.0830 C.3   114  ARG114      0.2205
     37  NE        26.9960   19.7450   64.2090 N.pl3 114  ARG114     -0.0865
     38  CZ        27.7140   18.8680   63.4990 C.cat 114  ARG114      0.5346
     39  NH1       27.0400   17.9760   62.7350 N.pl3 114  ARG114      0.1354
     40  NH2       29.0300   18.8480   63.5710 N.pl3 114  ARG114      0.1354
     41  N         22.5170   18.0710   63.3910 N.am  115  LEU115     -0.1966
     42  CA        22.3450   16.8470   64.1840 C.3   115  LEU115      0.1728
     43  C         23.6640   16.0810   64.2300 C.2   115  LEU115      0.2616
     44  O         24.4830   16.1670   63.3050 O.2   115  LEU115     -0.2715
     45  CB        21.2450   15.9840   63.5300 C.3   115  LEU115      0.0311
     46  CG        19.9120   16.6850   63.2470 C.3   115  LEU115      0.0022
     47  CD1       18.8670   15.7720   62.6090 C.3   115  LEU115      0.0001
     48  CD2       19.3090   17.3310   64.5090 C.3   115  LEU115      0.0001
     49  N         23.8910   15.3380   65.3100 N.am  116  LYS116     -0.1977
     50  CA        25.1040   14.5420   65.4450 C.3   116  LYS116      0.1596
     51  C         24.9150   13.4830   66.5440 C.2   116  LYS116      0.2287
     52  O         23.8910   13.5980   67.2530 O.2   116  LYS116     -0.2864
     53  CB        26.3430   15.4170   65.6290 C.3   116  LYS116      0.0298
     54  CG        27.6560   14.6650   65.7640 C.3   116  LYS116      0.0038
     55  CD        28.8630   15.5730   65.5440 C.3   116  LYS116      0.0206
     56  CE        30.1450   14.7590   65.7610 C.3   116  LYS116      0.1093
     57  NZ        30.3060   13.7130   64.7000 N.3   116  LYS116     -0.1314
     58  N         18.3320   15.4260   53.9000 N.3   135  GLU135     -0.1231
     59  CA        19.4250   14.6920   54.5530 C.3   135  GLU135      0.1699
     60  C         20.3190   14.0370   53.5190 C.2   135  GLU135      0.2592
     61  O         19.9360   13.7150   52.3750 O.2   135  GLU135     -0.2718
     62  CB        18.7720   13.6470   55.4430 C.3   135  GLU135      0.0402
     63  CG        19.6310   12.7280   56.2880 C.3   135  GLU135      0.1161
     64  CD        20.5550   13.4220   57.2590 C.2   135  GLU135      0.3649
     65  OE1       20.6080   13.0280   58.4550 O.co2 135  GLU135     -0.2457
     66  OE2       21.3130   14.3540   56.8750 O.co2 135  GLU135     -0.2457
     67  N         21.5800   13.8210   53.9080 N.am  136  ASP136     -0.1974
     68  CA        22.5380   13.2040   52.9840 C.3   136  ASP136      0.1709
     69  C         22.3430   11.6910   52.8250 C.2   136  ASP136      0.2293
     70  O         22.3520   11.2050   51.6930 O.2   136  ASP136     -0.2864
     71  CB        23.9740   13.5010   53.4360 C.3   136  ASP136      0.1436
     72  CG        24.2740   13.1360   54.8760 C.2   136  ASP136      0.3671
     73  OD1       23.4320   12.8130   55.7180 O.co2 136  ASP136     -0.2456
     74  OD2       25.4830   13.1370   55.2920 O.co2 136  ASP136     -0.2456
     75  N         18.5020    8.5490   63.1170 N.3   143  THR143     -0.1218
     76  CA        18.6240   10.0110   63.1330 C.3   143  THR143      0.1862
     77  C         17.3260   10.6960   62.7410 C.2   143  THR143      0.2287
     78  O         16.9100   11.6870   63.3730 O.2   143  THR143     -0.2866
     79  CB        19.7690   10.4130   62.1850 C.3   143  THR143      0.1770
     80  OG1       21.0250    9.8910   62.6440 O.3   143  THR143     -0.2211
     81  CG2       19.8760   11.9170   62.0440 C.3   143  THR143      0.0375
     82  N         30.4100    2.2880   53.7800 N.3   184  TRP184     -0.1241
     83  CA        30.6700    3.6110   54.2740 C.3   184  TRP184      0.1605
     84  C         31.1810    4.4640   53.0940 C.2   184  TRP184      0.2264
     85  O         32.1450    4.0890   52.4110 O.2   184  TRP184     -0.2867
     86  CB        31.7290    3.6360   55.3960 C.3   184  TRP184      0.0550
     87  CG        31.6980    4.9990   56.0430 C.ar  184  TRP184      0.0003
     88  CD1       32.4260    6.0890   55.7250 C.ar  184  TRP184      0.0946
     89  CD2       30.7830    5.4130   57.0470 C.ar  184  TRP184      0.0152
     90  NE1       32.0940    7.1630   56.5200 N.ar  184  TRP184     -0.2442
     91  CE2       31.0600    6.7690   57.3290 C.ar  184  TRP184      0.0810
     92  CE3       29.7340    4.7630   57.7300 C.ar  184  TRP184      0.0012
     93  CZ2       30.3380    7.4980   58.2740 C.ar  184  TRP184      0.0191
     94  CZ3       29.0500    5.5090   58.6770 C.ar  184  TRP184      0.0001
     95  CH2       29.3550    6.8360   58.9460 C.ar  184  TRP184      0.0015
     96  N         31.6310   12.3890   54.9460 N.3   191  ASP191     -0.1239
     97  CA        32.9890   12.4640   55.4840 C.3   191  ASP191      0.1674
     98  C         33.3170   11.1880   56.2760 C.2   191  ASP191      0.2266
     99  O         32.4890   10.3500   56.5330 O.2   191  ASP191     -0.2867
    100  CB        33.0980   13.6060   56.5070 C.3   191  ASP191      0.1410
    101  CG        32.2890   13.3500   57.7350 C.2   191  ASP191      0.3668
    102  OD1       31.0090   13.2100   57.6660 O.co2 191  ASP191     -0.2456
    103  OD2       32.7740   13.2450   58.9010 O.co2 191  ASP191     -0.2456
    104  N         35.3980   14.1260   59.4860 N.3   194  GLU194     -0.1245
    105  CA        35.5320   15.4320   58.9110 C.3   194  GLU194      0.1567
    106  C         36.3850   15.5130   57.6580 C.2   194  GLU194      0.2260
    107  O         36.4690   16.5690   57.0370 O.2   194  GLU194     -0.2867
    108  CB        36.0090   16.4770   59.9280 C.3   194  GLU194      0.0388
    109  CG        35.1200   16.6280   61.1440 C.3   194  GLU194      0.1160
    110  CD        33.6470   16.8870   60.8700 C.2   194  GLU194      0.3649
    111  OE1       33.2750   17.6030   59.9240 O.co2 194  GLU194     -0.2457
    112  OE2       32.7990   16.4000   61.6690 O.co2 194  GLU194     -0.2457
    113  N         35.1500   15.7210   52.6650 N.3   197  ARG197     -0.1245
    114  CA        33.8890   16.3460   52.1880 C.3   197  ARG197      0.1563
    115  C         34.0290   17.0080   50.8300 C.2   197  ARG197      0.2260
    116  O         33.0550   17.0400   50.0630 O.2   197  ARG197     -0.2867
    117  CB        33.3800   17.3810   53.1910 C.3   197  ARG197      0.0307
    118  CG        32.9960   16.7280   54.5250 C.3   197  ARG197      0.0489
    119  CD        32.1400   17.7470   55.2910 C.3   197  ARG197      0.2205
    120  NE        31.9860   17.4010   56.6970 N.pl3 197  ARG197     -0.0865
    121  CZ        31.0460   16.6570   57.2170 C.cat 197  ARG197      0.5346
    122  NH1       30.1070   16.0900   56.4720 N.pl3 197  ARG197      0.1354
    123  NH2       30.9870   16.4660   58.5330 N.pl3 197  ARG197      0.1354
@<TRIPOS>BOND
     1   116   115    2
     2   115   114    1
     3    70    69    2
     4   114   113    1
     5   114   117    1
     6    61    60    2
     7    85    84    2
     8    69    68    1
     9    68    71    1
    10    68    67    1
    11    84    83    1
    12   117   118    1
    13    71    72    1
    14    29    28    2
    15    60    67   am
    16    60    59    1
    17    82    83    1
    18    58    59    1
    19    83    86    1
    20   118   119    1
    21    59    62    1
    22    28    27    1
    23    72    74   ar
    24    72    73   ar
    25    96    97    1
    26   119   120    1
    27    86    87    1
    28    62    63    1
    29    97    98    1
    30    97   100    1
    31    20    19    2
    32    88    87   ar
    33    88    90   ar
    34    27    26    1
    35    87    89   ar
    36    98    99    2
    37    63    64    1
    38   122   121    1
    39   100   101    1
    40    90    91   ar
    41   120   121    2
    42    19    26   am
    43    19    18    1
    44    66    64   ar
    45     1     2    1
    46    16    14    1
    47   107   106    2
    48    89    91   ar
    49    89    92   ar
    50   121   123    1
    51    64    65   ar
    52     4     3    2
    53    91    93   ar
    54   106   105    1
    55   102   101   ar
    56    92    94   ar
    57   101   103   ar
    58    18    21    1
    59    18    17    1
    60     3     2    1
    61     3     9   am
    62     2     5    1
    63    93    95   ar
    64    21    22    1
    65     5     6    1
    66     5     7    1
    67     6     8    1
    68    14    15    1
    69    14    13    1
    70    94    95   ar
    71    10     9    1
    72    10    13    1
    73    10    11    1
    74   105   104    1
    75   105   108    1
    76    17    11   am
    77    11    12    2
    78    23    22    1
    79    23    24    1
    80   111   110   ar
    81   108   109    1
    82   110   109    1
    83   110   112   ar
    84    24    25    1
    85    81    79    1
    86    79    80    1
    87    79    76    1
    88    47    46    1
    89    39    38    1
    90    77    76    1
    91    77    78    2
    92    30    31    1
    93    31    34    1
    94    31    32    1
    95    75    76    1
    96    46    45    1
    97    46    48    1
    98    44    43    2
    99    41    32   am
   100    41    42    1
   101    38    40    1
   102    38    37    2
   103    45    42    1
   104    34    35    1
   105    32    33    2
   106    36    37    1
   107    36    35    1
   108    42    43    1
   109    43    49   am
   110    57    56    1
   111    49    50    1
   112    50    53    1
   113    50    51    1
   114    55    56    1
   115    55    54    1
   116    53    54    1
   117    51    52    2
