@<TRIPOS>MOLECULE
tmp/1qk5A00.pdb
 134 133 0 0 0
SMALL
GASTEIGER

@<TRIPOS>ATOM
      1  N         23.8910   15.3380   65.3100 N.3   116  LYS116     -0.1245
      2  CA        25.1040   14.5420   65.4450 C.3   116  LYS116      0.1561
      3  C         24.9150   13.4830   66.5440 C.2   116  LYS116      0.2260
      4  O         23.8910   13.5980   67.2530 O.2   116  LYS116     -0.2867
      5  CB        26.3430   15.4170   65.6290 C.3   116  LYS116      0.0271
      6  CG        27.6560   14.6650   65.7640 C.3   116  LYS116      0.0035
      7  CD        28.8630   15.5730   65.5440 C.3   116  LYS116      0.0206
      8  CE        30.1450   14.7590   65.7610 C.3   116  LYS116      0.1093
      9  NZ        30.3060   13.7130   64.7000 N.3   116  LYS116     -0.1314
     10  N         18.3320   15.4260   53.9000 N.3   135  GLU135     -0.1231
     11  CA        19.4250   14.6920   54.5530 C.3   135  GLU135      0.1699
     12  C         20.3190   14.0370   53.5190 C.2   135  GLU135      0.2592
     13  O         19.9360   13.7150   52.3750 O.2   135  GLU135     -0.2718
     14  CB        18.7720   13.6470   55.4430 C.3   135  GLU135      0.0402
     15  CG        19.6310   12.7280   56.2880 C.3   135  GLU135      0.1161
     16  CD        20.5550   13.4220   57.2590 C.2   135  GLU135      0.3649
     17  OE1       20.6080   13.0280   58.4550 O.co2 135  GLU135     -0.2457
     18  OE2       21.3130   14.3540   56.8750 O.co2 135  GLU135     -0.2457
     19  N         21.5800   13.8210   53.9080 N.am  136  ASP136     -0.1960
     20  CA        22.5380   13.2040   52.9840 C.3   136  ASP136      0.1840
     21  C         22.3430   11.6910   52.8250 C.2   136  ASP136      0.2622
     22  O         22.3520   11.2050   51.6930 O.2   136  ASP136     -0.2715
     23  CB        23.9740   13.5010   53.4360 C.3   136  ASP136      0.1450
     24  CG        24.2740   13.1360   54.8760 C.2   136  ASP136      0.3671
     25  OD1       23.4320   12.8130   55.7180 O.co2 136  ASP136     -0.2456
     26  OD2       25.4830   13.1370   55.2920 O.co2 136  ASP136     -0.2456
     27  N         22.1590   10.9890   53.9090 N.am  137  ILE137     -0.1963
     28  CA        21.9950    9.5280   53.7690 C.3   137  ILE137      0.1727
     29  C         21.2050    9.0090   54.9400 C.2   137  ILE137      0.2616
     30  O         21.3010    9.5290   56.0570 O.2   137  ILE137     -0.2715
     31  CB        23.3790    8.8860   53.6460 C.3   137  ILE137      0.0290
     32  CG1       23.2590    7.3540   53.4570 C.3   137  ILE137      0.0022
     33  CG2       24.3410    9.2020   54.7790 C.3   137  ILE137      0.0023
     34  CD1       24.5550    6.8100   52.8750 C.3   137  ILE137      0.0001
     35  N         20.4450    7.9620   54.6480 N.am  138  VAL138     -0.1963
     36  CA        19.6970    7.2670   55.7180 C.3   138  VAL138      0.1727
     37  C         20.2810    5.8530   55.7470 C.2   138  VAL138      0.2616
     38  O         20.4330    5.2380   54.6870 O.2   138  VAL138     -0.2715
     39  CB        18.1980    7.2370   55.4720 C.3   138  VAL138      0.0290
     40  CG1       17.5210    6.2720   56.4540 C.3   138  VAL138      0.0023
     41  CG2       17.5390    8.6120   55.6450 C.3   138  VAL138      0.0023
     42  N         20.6040    5.3820   56.9520 N.am  139  ALA139     -0.1963
     43  CA        21.2280    4.0430   57.0800 C.3   139  ALA139      0.1728
     44  C         20.3130    3.2610   58.0280 C.2   139  ALA139      0.2617
     45  O         19.3500    2.6920   57.5200 O.2   139  ALA139     -0.2715
     46  CB        22.6560    4.1840   57.5450 C.3   139  ALA139      0.0334
     47  N         20.4960    3.3430   59.3360 N.am  140  THR140     -0.1937
     48  CA        19.5990    2.6320   60.2530 C.3   140  THR140      0.2028
     49  C         18.2330    3.2950   60.3200 C.2   140  THR140      0.2643
     50  O         17.2030    2.6900   60.5670 O.2   140  THR140     -0.2714
     51  CB        20.1870    2.6120   61.6880 C.3   140  THR140      0.1808
     52  OG1       20.3370    3.9320   62.2250 O.3   140  THR140     -0.2208
     53  CG2       21.6080    2.0090   61.6620 C.3   140  THR140      0.0379
     54  N         18.2190    4.6160   60.1490 N.am  141  GLY141     -0.1939
     55  CA        17.0000    5.4090   60.2040 C.3   141  GLY141      0.2014
     56  C         16.7960    6.0540   61.5720 C.2   141  GLY141      0.2639
     57  O         15.8790    6.8460   61.7800 O.2   141  GLY141     -0.2714
     58  N         17.7470    5.8350   62.4770 N.am  142  PHE142     -0.1959
     59  CA        17.6410    6.3750   63.8220 C.3   142  PHE142      0.1771
     60  C         17.6000    7.9040   63.8370 C.2   142  PHE142      0.2620
     61  O         16.7680    8.4840   64.5100 O.2   142  PHE142     -0.2715
     62  CB        18.8360    5.9110   64.6800 C.3   142  PHE142      0.0574
     63  CG        18.9020    6.5910   66.0290 C.ar  142  PHE142     -0.0200
     64  CD1       18.0230    6.2450   67.0310 C.ar  142  PHE142     -0.0042
     65  CD2       19.8230    7.6070   66.2550 C.ar  142  PHE142     -0.0042
     66  CE1       18.0680    6.8770   68.2550 C.ar  142  PHE142     -0.0003
     67  CE2       19.8830    8.2410   67.4890 C.ar  142  PHE142     -0.0003
     68  CZ        18.9960    7.8730   68.4870 C.ar  142  PHE142     -0.0000
     69  N         18.5020    8.5490   63.1170 N.am  143  THR143     -0.1937
     70  CA        18.6240   10.0110   63.1330 C.3   143  THR143      0.2028
     71  C         17.3260   10.6960   62.7410 C.2   143  THR143      0.2642
     72  O         16.9100   11.6870   63.3730 O.2   143  THR143     -0.2714
     73  CB        19.7690   10.4130   62.1850 C.3   143  THR143      0.1808
     74  OG1       21.0250    9.8910   62.6440 O.3   143  THR143     -0.2208
     75  CG2       19.8760   11.9170   62.0440 C.3   143  THR143      0.0379
     76  N         16.7430   10.2850   61.6110 N.am  144  LEU144     -0.1977
     77  CA        15.5170   10.8980   61.1380 C.3   144  LEU144      0.1596
     78  C         14.2810   10.4380   61.9030 C.2   144  LEU144      0.2287
     79  O         13.2860   11.1450   61.8910 O.2   144  LEU144     -0.2864
     80  CB        15.3230   10.6420   59.6260 C.3   144  LEU144      0.0297
     81  CG        16.3680   11.4230   58.8100 C.3   144  LEU144      0.0022
     82  CD1       15.9830   11.2970   57.3430 C.3   144  LEU144      0.0001
     83  CD2       16.5160   12.8340   59.3310 C.3   144  LEU144      0.0001
     84  N         20.8900    3.3440   52.3710 N.3   167  LYS167     -0.1245
     85  CA        21.7360    2.1500   52.2870 C.3   167  LYS167      0.1561
     86  C         20.7960    0.9040   52.4950 C.2   167  LYS167      0.2260
     87  O         19.8930    1.0020   53.3330 O.2   167  LYS167     -0.2867
     88  CB        22.8130    2.0230   53.3400 C.3   167  LYS167      0.0271
     89  CG        23.6960    3.2120   53.5370 C.3   167  LYS167      0.0035
     90  CD        24.7920    2.8280   54.5240 C.3   167  LYS167      0.0206
     91  CE        25.9010    3.8420   54.4950 C.3   167  LYS167      0.1093
     92  NZ        26.8710    3.6130   55.6040 N.3   167  LYS167     -0.1314
     93  N         30.4100    2.2880   53.7800 N.3   184  TRP184     -0.1227
     94  CA        30.6700    3.6110   54.2740 C.3   184  TRP184      0.1737
     95  C         31.1810    4.4640   53.0940 C.2   184  TRP184      0.2595
     96  O         32.1450    4.0890   52.4110 O.2   184  TRP184     -0.2718
     97  CB        31.7290    3.6360   55.3960 C.3   184  TRP184      0.0564
     98  CG        31.6980    4.9990   56.0430 C.ar  184  TRP184      0.0003
     99  CD1       32.4260    6.0890   55.7250 C.ar  184  TRP184      0.0946
    100  CD2       30.7830    5.4130   57.0470 C.ar  184  TRP184      0.0152
    101  NE1       32.0940    7.1630   56.5200 N.ar  184  TRP184     -0.2442
    102  CE2       31.0600    6.7690   57.3290 C.ar  184  TRP184      0.0810
    103  CE3       29.7340    4.7630   57.7300 C.ar  184  TRP184      0.0012
    104  CZ2       30.3380    7.4980   58.2740 C.ar  184  TRP184      0.0191
    105  CZ3       29.0500    5.5090   58.6770 C.ar  184  TRP184      0.0001
    106  CH2       29.3550    6.8360   58.9460 C.ar  184  TRP184      0.0015
    107  N         30.4290    5.5390   52.8210 N.am  185  ILE185     -0.1980
    108  CA        30.7990    6.3890   51.7070 C.3   185  ILE185      0.1595
    109  C         31.4000    7.7090   52.1910 C.2   185  ILE185      0.2287
    110  O         31.0920    8.2150   53.2810 O.2   185  ILE185     -0.2864
    111  CB        29.6310    6.6320   50.7620 C.3   185  ILE185      0.0276
    112  CG1       28.4380    7.3220   51.4570 C.3   185  ILE185      0.0022
    113  CG2       29.1450    5.3060   50.1540 C.3   185  ILE185      0.0022
    114  CD1       27.3440    7.7030   50.4590 C.3   185  ILE185      0.0001
    115  N         30.0430   13.7230   52.1150 N.3   190  TYR190     -0.1227
    116  CA        30.1060   12.5730   53.0320 C.3   190  TYR190      0.1736
    117  C         31.4940   12.5960   53.6480 C.2   190  TYR190      0.2595
    118  O         32.3900   12.9070   52.8440 O.2   190  TYR190     -0.2718
    119  CB        29.7940   11.2510   52.3100 C.3   190  TYR190      0.0548
    120  CG        28.4020   11.2480   51.7370 C.ar  190  TYR190     -0.0200
    121  CD1       28.2080   11.3280   50.3470 C.ar  190  TYR190     -0.0009
    122  CD2       27.2980   11.0970   52.5750 C.ar  190  TYR190     -0.0009
    123  CE1       26.9110   11.3090   49.8480 C.ar  190  TYR190      0.0417
    124  CE2       25.9900   11.0530   52.0740 C.ar  190  TYR190      0.0417
    125  CZ        25.8400   11.1880   50.6960 C.ar  190  TYR190      0.1957
    126  OH        24.5560   11.1780   50.1730 O.3   190  TYR190     -0.2866
    127  N         31.6310   12.3890   54.9460 N.am  191  ASP191     -0.1974
    128  CA        32.9890   12.4640   55.4840 C.3   191  ASP191      0.1709
    129  C         33.3170   11.1880   56.2760 C.2   191  ASP191      0.2293
    130  O         32.4890   10.3500   56.5330 O.2   191  ASP191     -0.2864
    131  CB        33.0980   13.6060   56.5070 C.3   191  ASP191      0.1436
    132  CG        32.2890   13.3500   57.7350 C.2   191  ASP191      0.3671
    133  OD1       31.0090   13.2100   57.6660 O.co2 191  ASP191     -0.2456
    134  OD2       32.7740   13.2450   58.9010 O.co2 191  ASP191     -0.2456
@<TRIPOS>BOND
     1   123   121   ar
     2   123   125   ar
     3   113   111    1
     4   126   125    1
     5   121   120   ar
     6   114   112    1
     7   125   124   ar
     8   111   112    1
     9   111   108    1
    10    22    21    2
    11   108   109    1
    12   108   107    1
    13   120   119    1
    14   120   122   ar
    15   124   122   ar
    16   115   116    1
    17   109   110    2
    18    85    84    1
    19    85    86    1
    20    85    88    1
    21   119   116    1
    22    13    12    2
    23    96    95    2
    24    86    87    2
    25   107    95   am
    26    21    20    1
    27    21    27   am
    28   118   117    2
    29    34    32    1
    30    20    23    1
    31    20    19    1
    32   116   117    1
    33    95    94    1
    34    88    89    1
    35    23    24    1
    36    32    31    1
    37    12    19   am
    38    12    11    1
    39    89    90    1
    40    31    28    1
    41    31    33    1
    42   117   127   am
    43    28    27    1
    44    28    29    1
    45    93    94    1
    46    10    11    1
    47    94    97    1
    48    91    90    1
    49    91    92    1
    50    11    14    1
    51    35    29   am
    52    35    36    1
    53    38    37    2
    54    24    26   ar
    55    24    25   ar
    56    29    30    2
    57   127   128    1
    58    97    98    1
    59    14    15    1
    60    39    41    1
    61    39    36    1
    62    39    40    1
    63   128   129    1
    64   128   131    1
    65    36    37    1
    66    99    98   ar
    67    99   101   ar
    68    37    42   am
    69    98   100   ar
    70   129   130    2
    71    15    16    1
    72   131   132    1
    73   101   102   ar
    74    18    16   ar
    75    42    43    1
    76   100   102   ar
    77   100   103   ar
    78    43    46    1
    79    43    44    1
    80    16    17   ar
    81   102   104   ar
    82    82    81    1
    83    45    44    2
    84   133   132   ar
    85   103   105   ar
    86   132   134   ar
    87    44    47   am
    88   104   106   ar
    89   105   106   ar
    90    81    83    1
    91    81    80    1
    92    47    48    1
    93    80    77    1
    94    54    55    1
    95    54    49   am
    96    55    56    1
    97    48    49    1
    98    48    51    1
    99    49    50    2
   100    77    76    1
   101    77    78    1
   102    56    57    2
   103    56    58   am
   104    76    71   am
   105    53    51    1
   106    51    52    1
   107    79    78    2
   108    75    73    1
   109    73    74    1
   110    73    70    1
   111    58    59    1
   112    71    70    1
   113    71    72    2
   114    69    70    1
   115    69    60   am
   116    59    60    1
   117    59    62    1
   118    60    61    2
   119    62    63    1
   120     9     8    1
   121     1     2    1
   122     2     5    1
   123     2     3    1
   124     7     8    1
   125     7     6    1
   126     5     6    1
   127    63    65   ar
   128    63    64   ar
   129    65    67   ar
   130     3     4    2
   131    64    66   ar
   132    67    68   ar
   133    66    68   ar
