@<TRIPOS>MOLECULE
tmp/1qkcA05.pdb
 170 165 0 0 0
SMALL
GASTEIGER

@<TRIPOS>ATOM
      1  N         85.2500   82.0570   46.6870 N.3    63  ARG63      -0.1245
      2  CA        85.0670   80.7630   46.0390 C.3    63  ARG63       0.1563
      3  C         85.5960   80.8030   44.6160 C.2    63  ARG63       0.2260
      4  O         85.1920   80.0710   43.7500 O.2    63  ARG63      -0.2867
      5  CB        83.6210   80.3980   46.0360 C.3    63  ARG63       0.0307
      6  CG        83.4060   78.9430   45.9260 C.3    63  ARG63       0.0489
      7  CD        83.6930   78.3330   47.1940 C.3    63  ARG63       0.2205
      8  NE        83.5980   76.9080   47.1030 N.pl3  63  ARG63      -0.0865
      9  CZ        83.4220   76.1280   48.1480 C.cat  63  ARG63       0.5346
     10  NH1       83.3200   76.6410   49.3630 N.pl3  63  ARG63       0.1354
     11  NH2       83.3500   74.8290   47.9670 N.pl3  63  ARG63       0.1354
     12  N         77.0650   79.8140   44.7360 N.3    69  TYR69      -0.1241
     13  CA        76.3910   80.6200   45.7290 C.3    69  TYR69       0.1605
     14  C         76.8400   82.0780   45.7670 C.2    69  TYR69       0.2264
     15  O         78.0000   82.3790   45.5480 O.2    69  TYR69      -0.2867
     16  CB        76.6360   80.0350   47.0970 C.3    69  TYR69       0.0534
     17  CG        76.1320   78.6800   47.2850 C.ar   69  TYR69      -0.0201
     18  CD1       74.7600   78.4360   47.4910 C.ar   69  TYR69      -0.0009
     19  CD2       76.9880   77.6360   47.2650 C.ar   69  TYR69      -0.0009
     20  CE1       74.2720   77.1650   47.6850 C.ar   69  TYR69       0.0417
     21  CE2       76.5150   76.3480   47.4400 C.ar   69  TYR69       0.0417
     22  CZ        75.1640   76.0840   47.6570 C.ar   69  TYR69       0.1957
     23  OH        74.7650   74.7230   47.8170 O.3    69  TYR69      -0.2866
     24  N         78.6960   78.7150   59.1560 N.3    81  GLY81      -0.1210
     25  CA        78.5350   77.5250   58.3300 C.3    81  GLY81       0.1956
     26  C         78.3810   77.7060   56.8270 C.2    81  GLY81       0.2611
     27  O         77.6350   76.9930   56.1990 O.2    81  GLY81      -0.2717
     28  N         79.1050   78.6450   56.2590 N.am   82  GLN82      -0.1979
     29  CA        79.0310   78.9320   54.8500 C.3    82  GLN82       0.1601
     30  C         77.6580   79.1450   54.2540 C.2    82  GLN82       0.2287
     31  O         77.4640   78.9120   53.0580 O.2    82  GLN82      -0.2864
     32  CB        79.7590   77.8780   54.0380 C.3    82  GLN82       0.0394
     33  CG        81.2430   78.0830   53.9380 C.3    82  GLN82       0.0908
     34  CD        81.5820   79.1300   52.9620 C.2    82  GLN82       0.2608
     35  OE1       80.9240   79.1910   51.8810 O.2    82  GLN82      -0.2717
     36  NE2       82.6360   79.9910   53.2930 N.am   82  GLN82      -0.0878
     37  N         72.2180   74.7340   55.0280 N.3    97  PHE97      -0.1227
     38  CA        73.0900   73.6880   54.4730 C.3    97  PHE97       0.1736
     39  C         73.3010   73.9710   52.9840 C.2    97  PHE97       0.2595
     40  O         73.3470   75.1080   52.6050 O.2    97  PHE97      -0.2718
     41  CB        72.4600   72.3250   54.6670 C.3    97  PHE97       0.0547
     42  CG        73.4310   71.2620   55.0010 C.ar   97  PHE97      -0.0202
     43  CD1       74.1960   71.3640   56.1690 C.ar   97  PHE97      -0.0042
     44  CD2       73.6050   70.1610   54.1380 C.ar   97  PHE97      -0.0042
     45  CE1       75.1290   70.4100   56.5040 C.ar   97  PHE97      -0.0003
     46  CE2       74.5440   69.1630   54.4490 C.ar   97  PHE97      -0.0003
     47  CZ        75.3150   69.2910   55.6480 C.ar   97  PHE97      -0.0000
     48  N         73.4430   72.9830   52.1330 N.am   98  TYR98      -0.1976
     49  CA        73.6080   73.3120   50.7350 C.3    98  TYR98       0.1639
     50  C         72.3500   73.8960   50.1020 C.2    98  TYR98       0.2290
     51  O         72.2220   73.8700   48.8950 O.2    98  TYR98      -0.2864
     52  CB        73.9690   72.0760   49.9490 C.3    98  TYR98       0.0560
     53  CG        75.3060   71.4790   50.3030 C.ar   98  TYR98      -0.0198
     54  CD1       76.4760   71.9490   49.6910 C.ar   98  TYR98      -0.0009
     55  CD2       75.4320   70.4670   51.3040 C.ar   98  TYR98      -0.0009
     56  CE1       77.7450   71.4340   50.0600 C.ar   98  TYR98       0.0417
     57  CE2       76.7230   69.9740   51.6860 C.ar   98  TYR98       0.0417
     58  CZ        77.8500   70.4690   51.0520 C.ar   98  TYR98       0.1957
     59  OH        79.0850   70.0350   51.4120 O.3    98  TYR98      -0.2866
     60  N         70.7400   77.1270   49.6300 N.3   100  ASP100     -0.1239
     61  CA        70.7270   78.6090   49.5640 C.3   100  ASP100      0.1674
     62  C         70.3220   78.9570   48.1390 C.2   100  ASP100      0.2266
     63  O         70.7840   78.3470   47.2140 O.2   100  ASP100     -0.2867
     64  CB        72.1040   79.2150   49.8980 C.3   100  ASP100      0.1410
     65  CG        72.3170   79.4390   51.4070 C.2   100  ASP100      0.3668
     66  OD1       71.4760   80.0980   52.0710 O.co2 100  ASP100     -0.2456
     67  OD2       73.3400   78.9820   51.9340 O.co2 100  ASP100     -0.2456
     68  N         82.5020   73.2460   42.3550 N.3   226  TYR226     -0.1241
     69  CA        82.4000   73.6640   43.7700 C.3   226  TYR226      0.1605
     70  C         83.3760   72.8510   44.6720 C.2   226  TYR226      0.2264
     71  O         83.0280   72.4590   45.8130 O.2   226  TYR226     -0.2867
     72  CB        80.9490   73.4770   44.2610 C.3   226  TYR226      0.0534
     73  CG        80.5850   74.2940   45.4960 C.ar  226  TYR226     -0.0201
     74  CD1       80.6630   75.6820   45.4890 C.ar  226  TYR226     -0.0009
     75  CD2       80.1700   73.6860   46.6620 C.ar  226  TYR226     -0.0009
     76  CE1       80.3500   76.4360   46.5970 C.ar  226  TYR226      0.0417
     77  CE2       79.8470   74.4340   47.7880 C.ar  226  TYR226      0.0417
     78  CZ        79.9480   75.8020   47.7400 C.ar  226  TYR226      0.1957
     79  OH        79.6670   76.5370   48.8500 O.3   226  TYR226     -0.2866
     80  N         87.4710   71.8810   46.2770 N.3   228  TRP228     -0.1241
     81  CA        88.6490   72.4610   46.9200 C.3   228  TRP228      0.1605
     82  C         89.9990   71.9690   46.3060 C.2   228  TRP228      0.2264
     83  O         90.1250   70.8120   45.8300 O.2   228  TRP228     -0.2867
     84  CB        88.6940   72.1120   48.4190 C.3   228  TRP228      0.0550
     85  CG        87.4840   72.3380   49.2420 C.ar  228  TRP228      0.0003
     86  CD1       86.4750   73.1770   48.9870 C.ar  228  TRP228      0.0946
     87  CD2       87.2200   71.7510   50.5280 C.ar  228  TRP228      0.0152
     88  NE1       85.5840   73.1630   50.0190 N.ar  228  TRP228     -0.2442
     89  CE2       86.0120   72.3050   50.9860 C.ar  228  TRP228      0.0810
     90  CE3       87.9070   70.8150   51.3440 C.ar  228  TRP228      0.0012
     91  CZ2       85.4500   71.9800   52.2120 C.ar  228  TRP228      0.0191
     92  CZ3       87.3450   70.4870   52.5930 C.ar  228  TRP228      0.0001
     93  CH2       86.1190   71.0780   53.0100 C.ar  228  TRP228      0.0015
     94  N         72.9500   66.8820   44.9230 N.3   291  GLN291     -0.1245
     95  CA        74.2830   66.8050   44.3240 C.3   291  GLN291      0.1566
     96  C         74.9810   65.4630   44.6380 C.2   291  GLN291      0.2260
     97  O         74.6870   64.7870   45.6660 O.2   291  GLN291     -0.2867
     98  CB        75.1750   67.9790   44.8010 C.3   291  GLN291      0.0367
     99  CG        75.4110   68.0070   46.3440 C.3   291  GLN291      0.0905
    100  CD        76.6650   68.7850   46.7790 C.2   291  GLN291      0.2608
    101  OE1       77.7670   68.6070   46.2430 O.2   291  GLN291     -0.2717
    102  NE2       76.4920   69.6310   47.7760 N.am  291  GLN291     -0.0878
    103  N         78.8610   64.7240   44.5420 N.3   293  SER293     -0.1217
    104  CA        80.1460   65.3040   44.2960 C.3   293  SER293      0.1889
    105  C         81.3740   64.7590   45.0590 C.2   293  SER293      0.2288
    106  O         81.2910   64.3530   46.2440 O.2   293  SER293     -0.2866
    107  CB        80.0460   66.8140   44.5300 C.3   293  SER293      0.2089
    108  OG        79.5240   67.4930   43.3960 O.3   293  SER293     -0.2183
    109  N         84.8540   66.2360   46.0820 N.3   295  TYR295     -0.1241
    110  CA        85.6230   67.4500   46.2880 C.3   295  TYR295      0.1605
    111  C         87.0000   66.9820   46.6470 C.2   295  TYR295      0.2264
    112  O         87.2200   65.7990   46.6130 O.2   295  TYR295     -0.2867
    113  CB        85.0370   68.2710   47.4480 C.3   295  TYR295      0.0534
    114  CG        84.8110   67.5980   48.7970 C.ar  295  TYR295     -0.0201
    115  CD1       83.7870   66.6940   48.9570 C.ar  295  TYR295     -0.0009
    116  CD2       85.5750   67.9690   49.9310 C.ar  295  TYR295     -0.0009
    117  CE1       83.4800   66.1450   50.2080 C.ar  295  TYR295      0.0417
    118  CE2       85.3010   67.4300   51.2190 C.ar  295  TYR295      0.0417
    119  CZ        84.2330   66.4940   51.3670 C.ar  295  TYR295      0.1957
    120  OH        83.9350   65.8490   52.6180 O.3   295  TYR295     -0.2866
    121  N         90.5330   67.1230   49.3830 N.3   297  TYR297     -0.1241
    122  CA        91.1120   67.3980   50.7080 C.3   297  TYR297      0.1605
    123  C         92.5810   67.5490   50.3670 C.2   297  TYR297      0.2264
    124  O         93.0710   66.9380   49.4280 O.2   297  TYR297     -0.2867
    125  CB        90.9080   66.2560   51.6780 C.3   297  TYR297      0.0534
    126  CG        90.1660   66.6830   52.8740 C.ar  297  TYR297     -0.0201
    127  CD1       88.8750   67.2180   52.7610 C.ar  297  TYR297     -0.0009
    128  CD2       90.7520   66.6270   54.1150 C.ar  297  TYR297     -0.0009
    129  CE1       88.1640   67.7190   53.8730 C.ar  297  TYR297      0.0417
    130  CE2       90.0570   67.1140   55.2490 C.ar  297  TYR297      0.0417
    131  CZ        88.7530   67.6710   55.1170 C.ar  297  TYR297      0.1957
    132  OH        88.0700   68.1900   56.2110 O.3   297  TYR297     -0.2866
    133  N         80.3340   63.5840   48.6310 N.3   328  VAL328     -0.1245
    134  CA        79.0510   63.8040   49.2830 C.3   328  VAL328      0.1561
    135  C         77.8770   63.7270   48.3180 C.2   328  VAL328      0.2260
    136  O         77.9680   64.1590   47.1620 O.2   328  VAL328     -0.2867
    137  CB        79.0050   65.1210   49.9770 C.3   328  VAL328      0.0252
    138  CG1       79.4140   66.1580   48.9880 C.3   328  VAL328      0.0019
    139  CG2       77.5930   65.3610   50.5830 C.3   328  VAL328      0.0019
    140  N         78.1380   61.4120   53.2720 N.3   373  PHE373     -0.1241
    141  CA        79.4820   61.9260   53.1430 C.3   373  PHE373      0.1605
    142  C         80.6160   60.8860   53.1590 C.2   373  PHE373      0.2264
    143  O         80.6430   59.9660   53.9810 O.2   373  PHE373     -0.2867
    144  CB        79.7600   62.9360   54.2490 C.3   373  PHE373      0.0534
    145  CG        78.9800   64.2110   54.1260 C.ar  373  PHE373     -0.0203
    146  CD1       77.6940   64.2930   54.6250 C.ar  373  PHE373     -0.0042
    147  CD2       79.5530   65.3420   53.5300 C.ar  373  PHE373     -0.0042
    148  CE1       76.9920   65.4730   54.5390 C.ar  373  PHE373     -0.0003
    149  CE2       78.8640   66.5210   53.4420 C.ar  373  PHE373     -0.0003
    150  CZ        77.5860   66.5910   53.9440 C.ar  373  PHE373     -0.0000
    151  N         74.7900   75.3260   66.7570 N.3   498  GLN498     -0.1245
    152  CA        75.7540   74.3790   67.2990 C.3   498  GLN498      0.1566
    153  C         75.4160   73.9660   68.7120 C.2   498  GLN498      0.2260
    154  O         74.7840   74.7060   69.4810 O.2   498  GLN498     -0.2867
    155  CB        77.1750   74.9600   67.2520 C.3   498  GLN498      0.0367
    156  CG        77.6730   75.3090   65.8480 C.3   498  GLN498      0.0905
    157  CD        77.4960   74.1590   64.8670 C.2   498  GLN498      0.2608
    158  OE1       77.8700   73.0270   65.1710 O.2   498  GLN498     -0.2717
    159  NE2       76.9340   74.4410   63.6820 N.am  498  GLN498     -0.0878
    160  N         90.3840   79.0490   52.2840 N.3   686  PHE686     -0.1241
    161  CA        89.7000   79.1670   53.5690 C.3   686  PHE686      0.1605
    162  C         90.3980   78.2020   54.4990 C.2   686  PHE686      0.2264
    163  O         90.1070   78.1200   55.6820 O.2   686  PHE686     -0.2867
    164  CB        88.2240   78.8170   53.4360 C.3   686  PHE686      0.0534
    165  CG        87.9630   77.3650   53.3210 C.ar  686  PHE686     -0.0203
    166  CD1       87.8390   76.5870   54.4620 C.ar  686  PHE686     -0.0042
    167  CD2       87.9080   76.7640   52.0800 C.ar  686  PHE686     -0.0042
    168  CE1       87.6730   75.2210   54.3910 C.ar  686  PHE686     -0.0003
    169  CE2       87.7390   75.3630   51.9750 C.ar  686  PHE686     -0.0003
    170  CZ        87.6260   74.5840   53.1330 C.ar  686  PHE686     -0.0000
@<TRIPOS>BOND
     1    68    69    1
     2   108   107    1
     3     4     3    2
     4    69    72    1
     5    69    70    1
     6    72    73    1
     7   104   107    1
     8   104   103    1
     9   104   105    1
    10    95    96    1
    11    95    98    1
    12    95    94    1
    13     3     2    1
    14    96    97    2
    15    70    71    2
    16    12    13    1
    17    98    99    1
    18   105   106    2
    19    74    73   ar
    20    74    76   ar
    21    73    75   ar
    22    15    14    2
    23    13    14    1
    24    13    16    1
    25    83    82    2
    26     6     5    1
    27     6     7    1
    28     5     2    1
    29     2     1    1
    30   109   110    1
    31   101   100    2
    32    80    81    1
    33   110   111    1
    34   110   113    1
    35    82    81    1
    36    99   100    1
    37    76    78   ar
    38   112   111    2
    39    75    77   ar
    40   100   102   am
    41    81    84    1
    42    16    17    1
    43     8     7    1
    44     8     9    2
    45   136   135    2
    46    63    62    2
    47    19    17   ar
    48    19    21   ar
    49    17    18   ar
    50    21    22   ar
    51   113   114    1
    52    18    20   ar
    53    22    20   ar
    54    22    23    1
    55    78    77   ar
    56    78    79    1
    57    11     9    1
    58    62    61    1
    59     9    10    1
    60   135   134    1
    61    84    85    1
    62   133   134    1
    63   114   115   ar
    64   114   116   ar
    65    51    50    2
    66   115   117   ar
    67    86    85   ar
    68    86    88   ar
    69   138   137    1
    70    85    87   ar
    71   134   137    1
    72   121   122    1
    73   124   123    2
    74    61    60    1
    75    61    64    1
    76    54    56   ar
    77    54    53   ar
    78    64    65    1
    79   116   118   ar
    80    52    53    1
    81    52    49    1
    82   137   139    1
    83    88    89   ar
    84    56    58   ar
    85    50    49    1
    86   117   119   ar
    87    53    55   ar
    88   123   122    1
    89    87    89   ar
    90    87    90   ar
    91   122   125    1
    92    49    48    1
    93    89    91   ar
    94    58    59    1
    95    58    57   ar
    96   118   119   ar
    97    55    57   ar
    98    90    92   ar
    99   119   120    1
   100    65    67   ar
   101    65    66   ar
   102   125   126    1
   103    35    34    2
   104   169   167   ar
   105   169   170   ar
   106   167   165   ar
   107    48    39   am
   108    91    93   ar
   109   160   161    1
   110    92    93   ar
   111    40    39    2
   112   127   126   ar
   113   127   129   ar
   114   126   128   ar
   115    34    36   am
   116    34    33    1
   117    39    38    1
   118    31    30    2
   119   170   168   ar
   120   141   142    1
   121   141   140    1
   122   141   144    1
   123   142   143    2
   124   165   164    1
   125   165   166   ar
   126   164   161    1
   127   149   147   ar
   128   149   150   ar
   129   147   145   ar
   130   161   162    1
   131   129   131   ar
   132    33    32    1
   133   150   148   ar
   134    32    29    1
   135   128   130   ar
   136   145   144    1
   137   145   146   ar
   138    44    46   ar
   139    44    42   ar
   140    30    29    1
   141   168   166   ar
   142    46    47   ar
   143    38    41    1
   144    38    37    1
   145   162   163    2
   146   148   146   ar
   147    41    42    1
   148    29    28    1
   149    42    43   ar
   150   131   130   ar
   151   131   132    1
   152    47    45   ar
   153    43    45   ar
   154    27    26    2
   155    28    26   am
   156    26    25    1
   157    25    24    1
   158   159   157   am
   159   157   158    2
   160   157   156    1
   161   156   155    1
   162   151   152    1
   163   155   152    1
   164   152   153    1
   165   153   154    2
