@<TRIPOS>MOLECULE
tmp/1qkiF00.pdb
 257 239 0 0 0
SMALL
GASTEIGER

@<TRIPOS>ATOM
      1  N          8.5610  144.1740  147.1360 N.3   214  ILE214     -0.1245
      2  CA         8.7770  145.4830  147.7280 C.3   214  ILE214      0.1561
      3  C          8.4240  146.5870  146.7470 C.2   214  ILE214      0.2260
      4  O          9.0050  146.6890  145.6570 O.2   214  ILE214     -0.2867
      5  CB        10.2520  145.6560  148.1350 C.3   214  ILE214      0.0252
      6  CG1       10.6820  144.5040  149.0460 C.3   214  ILE214      0.0019
      7  CG2       10.4660  147.0130  148.7940 C.3   214  ILE214      0.0019
      8  CD1       12.1480  144.4330  149.2360 C.3   214  ILE214      0.0001
      9  N          8.4690  150.4550  146.4260 N.3   216  THR216     -0.1218
     10  CA         9.1110  151.6270  147.0020 C.3   216  THR216      0.1862
     11  C          8.7670  152.9550  146.3420 C.2   216  THR216      0.2287
     12  O          8.6040  153.0300  145.1240 O.2   216  THR216     -0.2866
     13  CB        10.6340  151.4520  146.9080 C.3   216  THR216      0.1770
     14  OG1       11.0060  150.1540  147.3940 O.3   216  THR216     -0.2211
     15  CG2       11.3460  152.5120  147.6940 C.3   216  THR216      0.0375
     16  N         10.2170  157.0080  146.9310 N.3   218  LYS218     -0.1245
     17  CA        11.0600  157.9400  147.6750 C.3   218  LYS218      0.1561
     18  C         11.2330  159.3060  147.0320 C.2   218  LYS218      0.2260
     19  O         11.4340  159.4190  145.8160 O.2   218  LYS218     -0.2867
     20  CB        12.4530  157.3390  147.8740 C.3   218  LYS218      0.0271
     21  CG        12.4770  156.0480  148.6610 C.3   218  LYS218      0.0035
     22  CD        13.8320  155.3340  148.5710 C.3   218  LYS218      0.0206
     23  CE        14.9540  156.0840  149.2760 C.3   218  LYS218      0.1093
     24  NZ        16.2300  155.3170  149.2090 N.3   218  LYS218     -0.1314
     25  N          6.8940  150.6990  151.1450 N.3   337  ARG337     -0.1245
     26  CA         7.6810  151.6670  151.8930 C.3   337  ARG337      0.1563
     27  C          7.7880  152.9680  151.1080 C.2   337  ARG337      0.2260
     28  O          8.0460  152.9680  149.8980 O.2   337  ARG337     -0.2867
     29  CB         9.0690  151.0900  152.2410 C.3   337  ARG337      0.0307
     30  CG        10.0960  151.0460  151.0960 C.3   337  ARG337      0.0489
     31  CD        11.3960  150.2980  151.4790 C.3   337  ARG337      0.2205
     32  NE        11.9920  150.7200  152.7560 N.pl3 337  ARG337     -0.0865
     33  CZ        13.2260  151.2110  152.9020 C.cat 337  ARG337      0.5346
     34  NH1       14.0240  151.3610  151.8470 N.pl3 337  ARG337      0.1354
     35  NH2       13.6760  151.5240  154.1170 N.pl3 337  ARG337      0.1354
     36  N         17.2210  160.1770  150.8140 N.3   343  ASN343     -0.1225
     37  CA        18.4740  160.2940  150.0660 C.3   343  ASN343      0.1785
     38  C         18.4050  160.2920  148.5430 C.2   343  ASN343      0.2597
     39  O         19.4080  160.5390  147.8760 O.2   343  ASN343     -0.2718
     40  CB        19.4600  159.2090  150.5190 C.3   343  ASN343      0.1169
     41  CG        18.9650  157.8010  150.2260 C.2   343  ASN343      0.2627
     42  OD1       17.8780  157.4100  150.6490 O.2   343  ASN343     -0.2716
     43  ND2       19.7710  157.0300  149.5110 N.am  343  ASN343     -0.0877
     44  N         17.2400  160.0030  147.9830 N.am  344  GLU344     -0.1979
     45  CA        17.1000  159.9560  146.5310 C.3   344  GLU344      0.1602
     46  C         15.6350  160.0350  146.1160 C.2   344  GLU344      0.2287
     47  O         14.7370  160.1840  146.9500 O.2   344  GLU344     -0.2864
     48  CB        17.7050  158.6530  145.9840 C.3   344  GLU344      0.0415
     49  CG        17.0080  157.3780  146.5010 C.3   344  GLU344      0.1163
     50  CD        17.4660  156.0970  145.8140 C.2   344  GLU344      0.3649
     51  OE1       17.8140  156.1470  144.6140 O.co2 344  GLU344     -0.2457
     52  OE2       17.4520  155.0320  146.4700 O.co2 344  GLU344     -0.2457
     53  N         13.0800  157.8170  143.7230 N.3   346  LYS346     -0.1245
     54  CA        12.8470  156.6360  142.9030 C.3   346  LYS346      0.1561
     55  C         11.5660  155.9130  143.2930 C.2   346  LYS346      0.2260
     56  O         11.0470  156.0750  144.4020 O.2   346  LYS346     -0.2867
     57  CB        14.0370  155.6660  142.9520 C.3   346  LYS346      0.0271
     58  CG        14.0430  154.7150  144.1350 C.3   346  LYS346      0.0035
     59  CD        15.1140  153.6400  143.9890 C.3   346  LYS346      0.0206
     60  CE        15.1300  152.7010  145.1930 C.3   346  LYS346      0.1093
     61  NZ        16.3270  151.8110  145.2140 N.3   346  LYS346     -0.1314
     62  N         10.0090  151.9460  142.4750 N.3   348  GLU348     -0.1245
     63  CA        10.2480  150.6900  141.8060 C.3   348  GLU348      0.1567
     64  C          9.5480  149.5200  142.4730 C.2   348  GLU348      0.2260
     65  O          9.1440  149.5820  143.6460 O.2   348  GLU348     -0.2867
     66  CB        11.7490  150.4040  141.7440 C.3   348  GLU348      0.0388
     67  CG        12.3250  149.8850  143.0530 C.3   348  GLU348      0.1160
     68  CD        13.8290  149.7940  143.0530 C.2   348  GLU348      0.3649
     69  OE1       14.4580  149.9740  141.9860 O.co2 348  GLU348     -0.2457
     70  OE2       14.3810  149.5550  144.1430 O.co2 348  GLU348     -0.2457
     71  N         10.0960  145.4650  143.2110 N.3   350  ARG350     -0.1245
     72  CA        11.1780  144.4860  143.3000 C.3   350  ARG350      0.1563
     73  C         10.6610  143.1900  143.8800 C.2   350  ARG350      0.2260
     74  O          9.8690  143.2090  144.8270 O.2   350  ARG350     -0.2867
     75  CB        12.3310  145.0000  144.1700 C.3   350  ARG350      0.0307
     76  CG        13.3130  143.9080  144.6090 C.3   350  ARG350      0.0489
     77  CD        14.4400  144.4470  145.4870 C.3   350  ARG350      0.2205
     78  NE        15.6260  144.8280  144.7190 N.pl3 350  ARG350     -0.0865
     79  CZ        15.9590  146.0790  144.4160 C.cat 350  ARG350      0.5346
     80  NH1       15.1950  147.0840  144.8210 N.pl3 350  ARG350      0.1354
     81  NH2       17.0440  146.3270  143.6860 N.pl3 350  ARG350      0.1354
     82  N         16.6080  138.4770  141.9140 N.3   369  GLU369     -0.1245
     83  CA        15.6610  139.5460  142.1140 C.3   369  GLU369      0.1567
     84  C         15.2920  140.1640  140.7730 C.2   369  GLU369      0.2260
     85  O         16.1200  140.2480  139.8570 O.2   369  GLU369     -0.2867
     86  CB        16.2700  140.6230  143.0030 C.3   369  GLU369      0.0388
     87  CG        16.6270  140.1690  144.4030 C.3   369  GLU369      0.1160
     88  CD        17.4330  141.2040  145.1930 C.2   369  GLU369      0.3649
     89  OE1       17.7120  142.3090  144.6640 O.co2 369  GLU369     -0.2457
     90  OE2       17.7930  140.9000  146.3540 O.co2 369  GLU369     -0.2457
     91  N         12.1920  149.6000  137.6530 N.3   373  ARG373     -0.1245
     92  CA        12.3150  150.9670  138.1320 C.3   373  ARG373      0.1563
     93  C         11.3990  151.8740  137.3250 C.2   373  ARG373      0.2260
     94  O         11.6640  152.1370  136.1490 O.2   373  ARG373     -0.2867
     95  CB        13.7580  151.4520  137.9960 C.3   373  ARG373      0.0307
     96  CG        14.1010  152.6120  138.9230 C.3   373  ARG373      0.0489
     97  CD        15.3030  153.4350  138.4510 C.3   373  ARG373      0.2205
     98  NE        16.5370  152.6630  138.3470 N.pl3 373  ARG373     -0.0865
     99  CZ        17.4030  152.7740  137.3420 C.cat 373  ARG373      0.5346
    100  NH1       17.1800  153.6280  136.3550 N.pl3 373  ARG373      0.1354
    101  NH2       18.4870  152.0120  137.3090 N.pl3 373  ARG373      0.1354
    102  N         15.0900  157.2650  135.0520 N.3   377  ASN377     -0.1240
    103  CA        15.8080  156.3710  134.1410 C.3   377  ASN377      0.1653
    104  C         15.1620  155.0010  134.0390 C.2   377  ASN377      0.2266
    105  O         15.8010  153.9830  134.2860 O.2   377  ASN377     -0.2867
    106  CB        17.2530  156.2060  134.5900 C.3   377  ASN377      0.1155
    107  CG        18.0400  157.4800  134.4670 C.2   377  ASN377      0.2627
    108  OD1       18.1270  158.2630  135.4130 O.2   377  ASN377     -0.2716
    109  ND2       18.6060  157.7140  133.2870 N.am  377  ASN377     -0.0877
    110  N         13.9930  151.5280  133.8440 N.3   379  ALA379     -0.1245
    111  CA        14.7400  150.3400  133.4870 C.3   379  ALA379      0.1562
    112  C         14.1710  149.1280  134.1960 C.2   379  ALA379      0.2260
    113  O         13.4670  149.2740  135.1880 O.2   379  ALA379     -0.2867
    114  CB        16.1860  150.5240  133.8640 C.3   379  ALA379      0.0290
    115  N         15.4610  144.9310  135.1580 N.3   381  TYR381     -0.1241
    116  CA        16.5760  143.9810  135.1470 C.3   381  TYR381      0.1605
    117  C         16.4010  142.8580  136.1700 C.2   381  TYR381      0.2264
    118  O         15.5630  142.9550  137.0730 O.2   381  TYR381     -0.2867
    119  CB        17.9110  144.7090  135.3930 C.3   381  TYR381      0.0534
    120  CG        17.9800  145.5410  136.6650 C.ar  381  TYR381     -0.0201
    121  CD1       18.2960  144.9630  137.8900 C.ar  381  TYR381     -0.0009
    122  CD2       17.7400  146.9070  136.6400 C.ar  381  TYR381     -0.0009
    123  CE1       18.3720  145.7280  139.0580 C.ar  381  TYR381      0.0417
    124  CE2       17.8120  147.6800  137.7980 C.ar  381  TYR381      0.0417
    125  CZ        18.1280  147.0860  139.0000 C.ar  381  TYR381      0.1957
    126  OH        18.1990  147.8550  140.1360 O.3   381  TYR381     -0.2866
    127  N         18.7170  140.4970  138.7630 N.3   383  LYS383     -0.1245
    128  CA        20.0080  140.2360  139.3730 C.3   383  LYS383      0.1561
    129  C         20.1390  138.7320  139.4990 C.2   383  LYS383      0.2260
    130  O         19.3020  138.0890  140.1340 O.2   383  LYS383     -0.2867
    131  CB        20.0700  140.8790  140.7490 C.3   383  LYS383      0.0271
    132  CG        20.2130  142.3870  140.7060 C.3   383  LYS383      0.0035
    133  CD        19.9720  143.0270  142.0740 C.3   383  LYS383      0.0206
    134  CE        20.8260  142.4010  143.1640 C.3   383  LYS383      0.1093
    135  NZ        20.6220  143.0650  144.4780 N.3   383  LYS383     -0.1314
    136  N         23.8350  140.7730  136.3620 N.3   399  GLU399     -0.1245
    137  CA        22.4480  140.9800  135.9660 C.3   399  GLU399      0.1567
    138  C         22.1940  141.1440  134.4750 C.2   399  GLU399      0.2260
    139  O         23.0750  141.5630  133.7210 O.2   399  GLU399     -0.2867
    140  CB        21.8810  142.2030  136.6960 C.3   399  GLU399      0.0388
    141  CG        22.3760  143.5430  136.1640 C.3   399  GLU399      0.1160
    142  CD        23.8790  143.6430  136.1310 C.2   399  GLU399      0.3649
    143  OE1       24.5030  143.6350  137.2150 O.co2 399  GLU399     -0.2457
    144  OE2       24.4370  143.7150  135.0150 O.co2 399  GLU399     -0.2457
    145  N         20.1450  143.2090  131.9750 N.3   401  ASP401     -0.1239
    146  CA        19.5690  144.5390  132.0590 C.3   401  ASP401      0.1674
    147  C         18.9190  145.0570  130.7800 C.2   401  ASP401      0.2266
    148  O         19.2070  144.5720  129.6940 O.2   401  ASP401     -0.2867
    149  CB        20.6830  145.4910  132.5320 C.3   401  ASP401      0.1410
    150  CG        20.3170  146.9490  132.4120 C.2   401  ASP401      0.3668
    151  OD1       19.5310  147.4340  133.2420 O.co2 401  ASP401     -0.2456
    152  OD2       20.8280  147.6280  131.4970 O.co2 401  ASP401     -0.2456
    153  N         17.7740  149.0620  129.8340 N.3   403  THR403     -0.1218
    154  CA        17.5930  150.4610  130.1990 C.3   403  THR403      0.1862
    155  C         17.0680  151.2240  128.9950 C.2   403  THR403      0.2287
    156  O         17.7420  151.2990  127.9600 O.2   403  THR403     -0.2866
    157  CB        18.9080  151.0940  130.6410 C.3   403  THR403      0.1770
    158  OG1       19.4650  150.3390  131.7300 O.3   403  THR403     -0.2211
    159  CG2       18.6750  152.5380  131.0740 C.3   403  THR403      0.0375
    160  N         18.1820  157.2840  154.8070 N.3   467  ARG467     -0.1245
    161  CA        17.2950  156.2860  154.2040 C.3   467  ARG467      0.1563
    162  C         16.0670  156.0380  155.0790 C.2   467  ARG467      0.2260
    163  O         15.2150  155.2140  154.7530 O.2   467  ARG467     -0.2867
    164  CB        18.0300  154.9610  153.9800 C.3   467  ARG467      0.0307
    165  CG        18.7920  154.8710  152.6770 C.3   467  ARG467      0.0489
    166  CD        19.2860  153.4630  152.4550 C.3   467  ARG467      0.2205
    167  NE        18.1880  152.5030  152.4080 N.pl3 467  ARG467     -0.0865
    168  CZ        17.9720  151.5700  153.3310 C.cat 467  ARG467      0.5346
    169  NH1       18.7830  151.4780  154.3710 N.pl3 467  ARG467      0.1354
    170  NH2       16.9530  150.7220  153.2170 N.pl3 467  ARG467      0.1354
    171  N         13.9750  148.8770  158.1420 N.3   473  ASP473     -0.1239
    172  CA        14.8090  147.8110  157.5990 C.3   473  ASP473      0.1674
    173  C         14.6950  146.5550  158.4590 C.2   473  ASP473      0.2266
    174  O         14.6040  145.4380  157.9360 O.2   473  ASP473     -0.2867
    175  CB        16.2650  148.2520  157.5250 C.3   473  ASP473      0.1410
    176  CG        16.4720  149.4140  156.5880 C.2   473  ASP473      0.3668
    177  OD1       15.5920  149.6890  155.7420 O.co2 473  ASP473     -0.2456
    178  OD2       17.5310  150.0590  156.7030 O.co2 473  ASP473     -0.2456
    179  N         11.5240  144.7040  157.4450 N.3   476  MET476     -0.1230
    180  CA        11.7190  143.9580  156.2120 C.3   476  MET476      0.1702
    181  C         12.4700  142.6660  156.4850 C.2   476  MET476      0.2592
    182  O         12.0000  141.5900  156.1100 O.2   476  MET476     -0.2718
    183  CB        12.4480  144.8110  155.1770 C.3   476  MET476      0.0401
    184  CG        11.7210  146.0930  154.8630 C.3   476  MET476      0.0596
    185  SD        12.2650  146.9020  153.3660 S.3   476  MET476     -0.1393
    186  CE        13.6180  147.8590  153.9730 C.3   476  MET476      0.0692
    187  N         13.5880  142.7530  157.2010 N.am  477  LYS477     -0.1980
    188  CA        14.3570  141.5480  157.5130 C.3   477  LYS477      0.1596
    189  C         13.5240  140.5060  158.2600 C.2   477  LYS477      0.2287
    190  O         13.4750  139.3360  157.8710 O.2   477  LYS477     -0.2864
    191  CB        15.6110  141.8760  158.3280 C.3   477  LYS477      0.0298
    192  CG        16.4160  140.6310  158.7040 C.3   477  LYS477      0.0038
    193  CD        17.7340  140.9760  159.3790 C.3   477  LYS477      0.0206
    194  CE        18.4940  139.7160  159.7930 C.3   477  LYS477      0.1093
    195  NZ        19.8500  140.0430  160.3180 N.3   477  LYS477     -0.1314
    196  N         12.6650  139.4540  154.0050 N.3   481  PHE481     -0.1241
    197  CA        13.6700  140.0120  153.1150 C.3   481  PHE481      0.1605
    198  C         15.0770  139.7930  153.6260 C.2   481  PHE481      0.2264
    199  O         15.3300  139.8760  154.8260 O.2   481  PHE481     -0.2867
    200  CB        13.4080  141.5080  152.9450 C.3   481  PHE481      0.0534
    201  CG        14.3120  142.1950  151.9620 C.ar  481  PHE481     -0.0203
    202  CD1       14.3010  141.8510  150.6230 C.ar  481  PHE481     -0.0042
    203  CD2       15.1170  143.2500  152.3710 C.ar  481  PHE481     -0.0042
    204  CE1       15.0790  142.5620  149.7010 C.ar  481  PHE481     -0.0003
    205  CE2       15.8950  143.9660  151.4600 C.ar  481  PHE481     -0.0003
    206  CZ        15.8780  143.6270  150.1260 C.ar  481  PHE481     -0.0000
    207  N         18.9100  141.2260  152.9570 N.3   483  TYR483     -0.1227
    208  CA        19.7380  142.2450  152.2950 C.3   483  TYR483      0.1736
    209  C         21.1950  141.7930  152.2150 C.2   483  TYR483      0.2595
    210  O         21.7830  141.4040  153.2250 O.2   483  TYR483     -0.2718
    211  CB        19.6410  143.5970  153.0040 C.3   483  TYR483      0.0548
    212  CG        20.5130  144.6630  152.3790 C.ar  483  TYR483     -0.0200
    213  CD1       20.3130  145.0800  151.0580 C.ar  483  TYR483     -0.0009
    214  CD2       21.5430  145.2520  153.1030 C.ar  483  TYR483     -0.0009
    215  CE1       21.1250  146.0610  150.4780 C.ar  483  TYR483      0.0417
    216  CE2       22.3580  146.2330  152.5340 C.ar  483  TYR483      0.0417
    217  CZ        22.1430  146.6320  151.2230 C.ar  483  TYR483      0.1957
    218  OH        22.9360  147.6020  150.6630 O.3   483  TYR483     -0.2866
    219  N         21.7800  141.9170  151.0240 N.am  484  GLU484     -0.1965
    220  CA        23.1550  141.4770  150.7530 C.3   484  GLU484      0.1733
    221  C         24.3530  142.3690  151.1450 C.2   484  GLU484      0.2616
    222  O         25.2160  141.9660  151.9240 O.2   484  GLU484     -0.2715
    223  CB        23.2730  141.0830  149.2670 C.3   484  GLU484      0.0429
    224  CG        22.3340  139.9290  148.8240 C.3   484  GLU484      0.1163
    225  CD        21.2260  140.3650  147.8590 C.2   484  GLU484      0.3649
    226  OE1       20.7610  141.5230  147.9660 O.co2 484  GLU484     -0.2457
    227  OE2       20.8180  139.5440  146.9990 O.co2 484  GLU484     -0.2457
    228  N         24.4200  143.5580  150.5590 N.am  485  GLY485     -0.1955
    229  CA        25.5200  144.4700  150.7980 C.3   485  GLY485      0.1869
    230  C         26.6130  144.1550  149.7940 C.2   485  GLY485      0.2309
    231  O         27.3550  145.0400  149.3560 O.2   485  GLY485     -0.2863
    232  N         27.0330  143.5080  146.3870 N.3   487  TYR487     -0.1241
    233  CA        26.5950  143.5790  144.9980 C.3   487  TYR487      0.1605
    234  C         27.2290  144.8120  144.3570 C.2   487  TYR487      0.2264
    235  O         26.9730  145.9490  144.7540 O.2   487  TYR487     -0.2867
    236  CB        25.0620  143.5990  144.8950 C.3   487  TYR487      0.0534
    237  CG        24.5360  143.7890  143.4810 C.ar  487  TYR487     -0.0201
    238  CD1       25.0660  143.0720  142.4050 C.ar  487  TYR487     -0.0009
    239  CD2       23.5480  144.7330  143.2090 C.ar  487  TYR487     -0.0009
    240  CE1       24.6280  143.3040  141.0960 C.ar  487  TYR487      0.0417
    241  CE2       23.1110  144.9660  141.9090 C.ar  487  TYR487      0.0417
    242  CZ        23.6570  144.2530  140.8640 C.ar  487  TYR487      0.1957
    243  OH        23.2440  144.5150  139.5850 O.3   487  TYR487     -0.2866
    244  N         28.1150  147.3170  141.0620 N.3   489  TRP489     -0.1241
    245  CA        27.5140  147.7720  139.8070 C.3   489  TRP489      0.1605
    246  C         28.3040  148.8660  139.0760 C.2   489  TRP489      0.2264
    247  O         28.7470  149.8480  139.6790 O.2   489  TRP489     -0.2867
    248  CB        26.0440  148.1970  139.9820 C.3   489  TRP489      0.0550
    249  CG        25.3510  148.3390  138.6500 C.ar  489  TRP489      0.0003
    250  CD1       24.9750  147.3200  137.8070 C.ar  489  TRP489      0.0946
    251  CD2       25.0890  149.5560  137.9360 C.ar  489  TRP489      0.0152
    252  NE1       24.5220  147.8320  136.6090 N.ar  489  TRP489     -0.2442
    253  CE2       24.5790  149.1990  136.6630 C.ar  489  TRP489      0.0810
    254  CE3       25.2480  150.9140  138.2460 C.ar  489  TRP489      0.0012
    255  CZ2       24.2290  150.1520  135.6980 C.ar  489  TRP489      0.0191
    256  CZ3       24.8970  151.8640  137.2840 C.ar  489  TRP489      0.0001
    257  CH2       24.3950  151.4750  136.0260 C.ar  489  TRP489      0.0015
@<TRIPOS>BOND
     1   156   155    2
     2   155   154    1
     3   148   147    2
     4   153   154    1
     5   154   157    1
     6   157   159    1
     7   157   158    1
     8   147   146    1
     9   152   150   ar
    10   145   146    1
    11   146   149    1
    12   150   149    1
    13   150   151   ar
    14   109   107   am
    15   111   110    1
    16   111   114    1
    17   111   112    1
    18   139   138    2
    19   104   103    1
    20   104   105    2
    21   103   106    1
    22   103   102    1
    23   112   113    2
    24   107   106    1
    25   107   108    2
    26   138   137    1
    27   144   142   ar
    28   116   115    1
    29   116   119    1
    30   116   117    1
    31   119   120    1
    32   255   257   ar
    33   255   253   ar
    34   137   136    1
    35   137   140    1
    36   257   256   ar
    37   142   141    1
    38   142   143   ar
    39    94    93    2
    40   141   140    1
    41   117   118    2
    42   100    99    1
    43   252   253   ar
    44   252   250   ar
    45   122   120   ar
    46   122   124   ar
    47   253   251   ar
    48   120   121   ar
    49   256   254   ar
    50   101    99    1
    51    93    92    1
    52    99    98    2
    53    91    92    1
    54   124   125   ar
    55   250   249   ar
    56   121   123   ar
    57   251   254   ar
    58   251   249   ar
    59    95    92    1
    60    95    96    1
    61    98    97    1
    62    97    96    1
    63   249   248    1
    64   127   128    1
    65   125   123   ar
    66   125   126    1
    67   246   247    2
    68   246   245    1
    69   128   129    1
    70   128   131    1
    71   129   130    2
    72   243   242    1
    73   245   248    1
    74   245   244    1
    75    85    84    2
    76   132   131    1
    77   132   133    1
    78    84    83    1
    79   242   240   ar
    80   242   241   ar
    81   240   238   ar
    82    66    63    1
    83    66    67    1
    84    63    64    1
    85    63    62    1
    86   241   239   ar
    87    82    83    1
    88    69    68   ar
    89   133   134    1
    90    83    86    1
    91   238   237   ar
    92    64    65    2
    93    54    57    1
    94    54    55    1
    95    54    53    1
    96    57    58    1
    97    86    87    1
    98    68    67    1
    99    68    70   ar
   100   134   135    1
   101   239   237   ar
   102    71    72    1
   103    55    56    2
   104    72    73    1
   105    72    75    1
   106   237   236    1
   107    81    79    1
   108    73    74    2
   109    59    58    1
   110    59    60    1
   111    75    76    1
   112   234   235    2
   113   234   233    1
   114    87    88    1
   115    79    78    2
   116    79    80    1
   117    76    77    1
   118    51    50   ar
   119    89    88   ar
   120    78    77    1
   121   236   233    1
   122   233   232    1
   123    12    11    2
   124    88    90   ar
   125    60    61    1
   126     4     3    2
   127    50    52   ar
   128    50    49    1
   129    19    18    2
   130    48    49    1
   131    48    45    1
   132    46    45    1
   133    46    47    2
   134    11    10    1
   135     9    10    1
   136    45    44    1
   137     3     2    1
   138    13    10    1
   139    13    14    1
   140    13    15    1
   141    16    17    1
   142   227   225   ar
   143    18    17    1
   144     1     2    1
   145    17    20    1
   146     2     5    1
   147   225   226   ar
   148   225   224    1
   149    20    21    1
   150    39    38    2
   151    44    38   am
   152     5     7    1
   153     5     6    1
   154    38    37    1
   155    22    21    1
   156    22    23    1
   157   224   223    1
   158     6     8    1
   159    24    23    1
   160   223   220    1
   161   231   230    2
   162    43    41   am
   163   204   206   ar
   164   204   202   ar
   165   230   229    1
   166    28    27    2
   167    37    40    1
   168    37    36    1
   169   206   205   ar
   170    41    40    1
   171    41    42    2
   172   215   213   ar
   173   215   217   ar
   174   228   229    1
   175   228   221   am
   176   202   201   ar
   177   218   217    1
   178   220   219    1
   179   220   221    1
   180   219   209   am
   181   213   212   ar
   182    30    31    1
   183    30    29    1
   184    27    26    1
   185   221   222    2
   186    25    26    1
   187   217   216   ar
   188   205   203   ar
   189    31    32    1
   190    34    33    1
   191    26    29    1
   192   201   203   ar
   193   201   200    1
   194   209   208    1
   195   209   210    2
   196   208   207    1
   197   208   211    1
   198   212   211    1
   199   212   214   ar
   200   167   166    1
   201   167   168    2
   202   166   165    1
   203   216   214   ar
   204   165   164    1
   205    32    33    2
   206    33    35    1
   207   200   197    1
   208   197   198    1
   209   197   196    1
   210   170   168    1
   211   168   169    1
   212   185   186    1
   213   185   184    1
   214   198   199    2
   215   164   161    1
   216   161   160    1
   217   161   162    1
   218   163   162    2
   219   184   183    1
   220   183   180    1
   221   177   176   ar
   222   182   181    2
   223   180   181    1
   224   180   179    1
   225   181   187   am
   226   176   178   ar
   227   176   175    1
   228   187   188    1
   229   188   189    1
   230   188   191    1
   231   175   172    1
   232   172   171    1
   233   172   173    1
   234   190   189    2
   235   174   173    2
   236   191   192    1
   237   192   193    1
   238   193   194    1
   239   194   195    1
