@<TRIPOS>MOLECULE
tmp/1qknA00.pdb
 195 185 0 0 0
SMALL
GASTEIGER

@<TRIPOS>ATOM
      1  N         19.7820   20.4850   10.6810 N.3    34  MET34      -0.1245
      2  CA        20.5450   21.5610   10.0860 C.3    34  MET34       0.1570
      3  C         20.5440   21.5340    8.5630 C.2    34  MET34       0.2261
      4  O         20.5360   22.5880    7.9130 O.2    34  MET34      -0.2867
      5  CB        21.9940   21.5660   10.5680 C.3    34  MET34       0.0387
      6  CG        22.1950   21.7220   12.0580 C.3    34  MET34       0.0595
      7  SD        21.6700   23.3050   12.7390 S.3    34  MET34      -0.1393
      8  CE        19.9600   22.9680   13.1220 C.3    34  MET34       0.0692
      9  N         17.4090   23.1020    7.4750 N.3    37  LEU37      -0.1231
     10  CA        17.5800   24.4920    7.8190 C.3    37  LEU37       0.1693
     11  C         18.4820   25.1810    6.8120 C.2    37  LEU37       0.2592
     12  O         18.1140   26.2720    6.3670 O.2    37  LEU37      -0.2718
     13  CB        18.1140   24.6720    9.2470 C.3    37  LEU37       0.0284
     14  CG        17.1470   24.0920   10.2720 C.3    37  LEU37       0.0019
     15  CD1       17.8590   23.8610   11.5910 C.3    37  LEU37       0.0001
     16  CD2       15.9200   24.9670   10.4310 C.3    37  LEU37       0.0001
     17  N         19.5960   24.5600    6.4470 N.am   38  THR38      -0.1953
     18  CA        20.5090   25.1590    5.4910 C.3    38  THR38       0.1897
     19  C         19.8150   25.3080    4.1440 C.2    38  THR38       0.2313
     20  O         20.0500   26.3160    3.4900 O.2    38  THR38      -0.2863
     21  CB        21.8170   24.3790    5.2810 C.3    38  THR38       0.1794
     22  OG1       22.7010   24.4580    6.4120 O.3    38  THR38      -0.2208
     23  CG2       22.6050   24.8850    4.0790 C.3    38  THR38       0.0378
     24  N         16.6550   25.6710    3.6050 N.3    40  LEU40      -0.1231
     25  CA        15.6200   26.7070    3.7470 C.3    40  LEU40       0.1693
     26  C         16.2440   28.0960    3.6260 C.2    40  LEU40       0.2592
     27  O         15.8020   28.8990    2.8050 O.2    40  LEU40      -0.2718
     28  CB        14.8800   26.4690    5.0420 C.3    40  LEU40       0.0284
     29  CG        13.8500   27.5570    5.3780 C.3    40  LEU40       0.0019
     30  CD1       12.7540   27.6710    4.3310 C.3    40  LEU40       0.0001
     31  CD2       13.3140   27.2950    6.7540 C.3    40  LEU40       0.0001
     32  N         17.2860   28.3570    4.3940 N.am   41  ALA41      -0.1966
     33  CA        17.9760   29.6310    4.3840 C.3    41  ALA41       0.1728
     34  C         18.4280   29.9900    2.9960 C.2    41  ALA41       0.2616
     35  O         18.2050   31.1200    2.5350 O.2    41  ALA41      -0.2715
     36  CB        19.1470   29.6900    5.3670 C.3    41  ALA41       0.0334
     37  N         19.0980   29.0470    2.3220 N.am   42  ASP42      -0.1971
     38  CA        19.5820   29.3040    0.9690 C.3    42  ASP42       0.1709
     39  C         18.4460   29.6800    0.0410 C.2    42  ASP42       0.2293
     40  O         18.6880   30.5580   -0.7930 O.2    42  ASP42      -0.2864
     41  CB        20.3150   28.0500    0.4530 C.3    42  ASP42       0.1436
     42  CG        21.5500   27.8490    1.3260 C.2    42  ASP42       0.3671
     43  OD1       22.1200   28.8870    1.7340 O.co2  42  ASP42      -0.2456
     44  OD2       21.8670   26.6570    1.5590 O.co2  42  ASP42      -0.2456
     45  N         15.6460   31.2090    0.9120 N.3    44  GLU44      -0.1231
     46  CA        15.2590   32.5200    1.4200 C.3    44  GLU44       0.1699
     47  C         16.2750   33.5810    1.0500 C.2    44  GLU44       0.2592
     48  O         15.8910   34.7090    0.7060 O.2    44  GLU44      -0.2718
     49  CB        15.0410   32.5100    2.9280 C.3    44  GLU44       0.0402
     50  CG        14.0380   31.5090    3.4360 C.3    44  GLU44       0.1161
     51  CD        13.6590   31.7200    4.8840 C.2    44  GLU44       0.3649
     52  OE1       12.8990   32.6770    5.1320 O.co2  44  GLU44      -0.2457
     53  OE2       14.1300   30.9200    5.6940 O.co2  44  GLU44      -0.2457
     54  N         17.5690   33.2960    1.0840 N.am   45  LEU45      -0.1980
     55  CA        18.5740   34.2860    0.7060 C.3    45  LEU45       0.1596
     56  C         18.4430   34.6520   -0.7660 C.2    45  LEU45       0.2287
     57  O         18.7440   35.7930   -1.1500 O.2    45  LEU45      -0.2864
     58  CB        19.9730   33.7970    1.0860 C.3    45  LEU45       0.0297
     59  CG        20.1630   33.7400    2.6130 C.3    45  LEU45       0.0022
     60  CD1       21.2730   32.7920    3.0270 C.3    45  LEU45       0.0001
     61  CD2       20.3890   35.1570    3.1150 C.3    45  LEU45       0.0001
     62  N         21.8420   39.7760    6.6940 N.3    74  TRP74      -0.1227
     63  CA        21.0490   38.6340    6.2210 C.3    74  TRP74       0.1737
     64  C         20.5390   37.7780    7.3440 C.2    74  TRP74       0.2595
     65  O         19.3480   37.4550    7.3440 O.2    74  TRP74      -0.2718
     66  CB        21.7730   37.9130    5.0680 C.3    74  TRP74       0.0564
     67  CG        23.0090   37.1500    5.4350 C.ar   74  TRP74       0.0003
     68  CD1       24.3070   37.5190    5.2190 C.ar   74  TRP74       0.0946
     69  CD2       23.0520   35.8690    6.0940 C.ar   74  TRP74       0.0152
     70  NE1       25.1360   36.5710    5.7250 N.ar   74  TRP74      -0.2442
     71  CE2       24.4020   35.5470    6.2680 C.ar   74  TRP74       0.0810
     72  CE3       22.0730   35.0020    6.5570 C.ar   74  TRP74       0.0012
     73  CZ2       24.8340   34.3660    6.8700 C.ar   74  TRP74       0.0191
     74  CZ3       22.4750   33.8310    7.1640 C.ar   74  TRP74       0.0001
     75  CH2       23.8530   33.5280    7.3030 C.ar   74  TRP74       0.0015
     76  N         21.3140   37.3640    8.3520 N.am   75  MET75      -0.1979
     77  CA        20.7960   36.5380    9.4380 C.3    75  MET75       0.1605
     78  C         19.7600   37.2760   10.2690 C.2    75  MET75       0.2287
     79  O         18.6920   36.7640   10.6640 O.2    75  MET75      -0.2864
     80  CB        22.0080   36.0230   10.2680 C.3    75  MET75       0.0413
     81  CG        21.5860   35.1680   11.4280 C.3    75  MET75       0.0598
     82  SD        20.8360   33.5990   10.9330 S.3    75  MET75      -0.1393
     83  CE        22.3030   32.5760   10.7640 C.3    75  MET75       0.0692
     84  N         16.6200   37.0530    8.1770 N.3    78  LEU78      -0.1231
     85  CA        16.0560   35.7180    8.3070 C.3    78  LEU78       0.1693
     86  C         15.3720   35.5540    9.6650 C.2    78  LEU78       0.2591
     87  O         14.2260   35.0720    9.7220 O.2    78  LEU78      -0.2718
     88  CB        17.1580   34.6520    8.2540 C.3    78  LEU78       0.0284
     89  CG        17.8170   34.3820    6.9000 C.3    78  LEU78       0.0019
     90  CD1       18.6620   33.1100    7.0590 C.3    78  LEU78       0.0001
     91  CD2       16.7820   34.1290    5.7930 C.3    78  LEU78       0.0001
     92  N         16.0770   35.9670   10.7290 N.am   79  MET79      -0.1979
     93  CA        15.5130   35.8070   12.0580 C.3    79  MET79       0.1605
     94  C         14.2280   36.5500   12.3180 C.2    79  MET79       0.2287
     95  O         13.3210   36.0020   12.9870 O.2    79  MET79      -0.2864
     96  CB        16.5500   36.2330   13.1030 C.3    79  MET79       0.0413
     97  CG        17.6940   35.2370   13.1330 C.3    79  MET79       0.0598
     98  SD        18.9820   35.5410   14.3150 S.3    79  MET79      -0.1393
     99  CE        20.0100   34.0680   14.2820 C.3    79  MET79       0.0692
    100  N         11.3380   34.7430   10.7320 N.3    82  LEU82      -0.1245
    101  CA        11.0230   33.5360   11.5230 C.3    82  LEU82       0.1561
    102  C         10.2140   33.9610   12.7310 C.2    82  LEU82       0.2260
    103  O          9.1390   33.4310   13.0550 O.2    82  LEU82      -0.2867
    104  CB        12.3580   32.8810   11.9410 C.3    82  LEU82       0.0270
    105  CG        12.2750   31.8500   13.0710 C.3    82  LEU82       0.0019
    106  CD1       11.1710   30.8250   12.7360 C.3    82  LEU82       0.0001
    107  CD2       13.5930   31.1920   13.3530 C.3    82  LEU82       0.0001
    108  N          6.7060   34.8150   11.7030 N.3    85  ARG85      -0.1245
    109  CA         5.9590   33.6180   11.3310 C.3    85  ARG85       0.1563
    110  C          5.5020   32.8700   12.5880 C.2    85  ARG85       0.2260
    111  O          4.3580   32.4100   12.6110 O.2    85  ARG85      -0.2867
    112  CB         6.8190   32.7220   10.4220 C.3    85  ARG85       0.0307
    113  CG         6.8740   33.2500    8.9880 C.3    85  ARG85       0.0489
    114  CD         7.4750   32.2660    8.0040 C.3    85  ARG85       0.2205
    115  NE         8.7720   31.6730    8.3990 N.pl3  85  ARG85      -0.0865
    116  CZ         9.9540   32.2300    8.1410 C.cat  85  ARG85       0.5346
    117  NH1       10.0190   33.3810    7.5000 N.pl3  85  ARG85       0.1354
    118  NH2       11.0500   31.6180    8.4860 N.pl3  85  ARG85       0.1354
    119  N          9.7320   27.6900   10.9980 N.3    95  PHE95      -0.1241
    120  CA        10.6880   28.0260    9.9680 C.3    95  PHE95       0.1605
    121  C         10.0650   28.0230    8.5670 C.2    95  PHE95       0.2264
    122  O         10.6360   28.6330    7.6620 O.2    95  PHE95      -0.2867
    123  CB        11.9060   27.1160    9.9530 C.3    95  PHE95       0.0534
    124  CG        12.7880   27.2950   11.1590 C.ar   95  PHE95      -0.0203
    125  CD1       13.9320   28.0630   11.0190 C.ar   95  PHE95      -0.0042
    126  CD2       12.5110   26.7360   12.3900 C.ar   95  PHE95      -0.0042
    127  CE1       14.7830   28.2540   12.0920 C.ar   95  PHE95      -0.0003
    128  CE2       13.3600   26.9190   13.4650 C.ar   95  PHE95      -0.0003
    129  CZ        14.5100   27.6890   13.3150 C.ar   95  PHE95      -0.0000
    130  N         21.9340   24.6570   20.4910 N.3   112  ILE112     -0.1245
    131  CA        21.1270   25.5840   19.7110 C.3   112  ILE112      0.1561
    132  C         19.8640   25.9380   20.4830 C.2   112  ILE112      0.2260
    133  O         19.0780   26.7890   20.0530 O.2   112  ILE112     -0.2867
    134  CB        20.8360   24.9520   18.3370 C.3   112  ILE112      0.0252
    135  CG1       20.8840   26.0030   17.2330 C.3   112  ILE112      0.0019
    136  CG2       19.4930   24.2350   18.2980 C.3   112  ILE112      0.0019
    137  CD1       20.7280   25.4940   15.8200 C.3   112  ILE112      0.0001
    138  N         19.9640   29.4040   21.7760 N.3   115  ILE115     -0.1231
    139  CA        19.7280   30.3070   20.6580 C.3   115  ILE115      0.1692
    140  C         18.2240   30.2600   20.3100 C.2   115  ILE115      0.2592
    141  O         17.6030   31.2750   20.0160 O.2   115  ILE115     -0.2718
    142  CB        20.4950   29.9870   19.3750 C.3   115  ILE115      0.0266
    143  CG1       21.9710   29.8290   19.6590 C.3   115  ILE115      0.0019
    144  CG2       20.2260   31.0890   18.3460 C.3   115  ILE115      0.0020
    145  CD1       22.6680   31.0690   20.1570 C.3   115  ILE115      0.0001
    146  N         17.6060   29.0800   20.3760 N.am  116  PHE116     -0.1976
    147  CA        16.1940   28.9130   20.1160 C.3   116  PHE116      0.1639
    148  C         15.3840   29.6280   21.1870 C.2   116  PHE116      0.2290
    149  O         14.3000   30.0760   20.8310 O.2   116  PHE116     -0.2864
    150  CB        15.7390   27.4600   20.1100 C.3   116  PHE116      0.0560
    151  CG        15.8380   26.7720   18.7890 C.ar  116  PHE116     -0.0200
    152  CD1       16.7550   27.1710   17.8340 C.ar  116  PHE116     -0.0042
    153  CD2       15.0110   25.6970   18.5010 C.ar  116  PHE116     -0.0042
    154  CE1       16.8540   26.5230   16.6180 C.ar  116  PHE116     -0.0003
    155  CE2       15.0940   25.0450   17.2860 C.ar  116  PHE116     -0.0003
    156  CZ        16.0170   25.4580   16.3410 C.ar  116  PHE116     -0.0000
    157  N         15.3410   33.3800   20.4230 N.3   119  LEU119     -0.1245
    158  CA        14.3830   33.5660   19.3370 C.3   119  LEU119      0.1561
    159  C         12.9540   33.4770   19.8140 C.2   119  LEU119      0.2260
    160  O         12.1220   34.2770   19.3310 O.2   119  LEU119     -0.2867
    161  CB        14.5420   32.5830   18.1690 C.3   119  LEU119      0.0270
    162  CG        15.8320   32.8120   17.3800 C.3   119  LEU119      0.0019
    163  CD1       16.2730   31.5380   16.6640 C.3   119  LEU119      0.0001
    164  CD2       15.6910   33.9670   16.4100 C.3   119  LEU119      0.0001
    165  N         24.0050   33.5840   16.7530 N.3   211  GLY211     -0.1225
    166  CA        23.6380   32.6240   15.7330 C.3   211  GLY211      0.1811
    167  C         24.8150   32.4950   14.7670 C.2   211  GLY211      0.2280
    168  O         25.2360   31.3680   14.4600 O.2   211  GLY211     -0.2866
    169  N         27.6330   30.7040   16.5190 N.3   214  HIS214     -0.1226
    170  CA        27.1690   29.3590   16.7580 C.3   214  HIS214      0.1752
    171  C         27.2600   28.5350   15.4730 C.2   214  HIS214      0.2595
    172  O         27.6890   27.3900   15.5430 O.2   214  HIS214     -0.2718
    173  CB        25.7610   29.2740   17.3420 C.3   214  HIS214      0.0759
    174  CG        25.2170   27.8790   17.3680 C.ar  214  HIS214      0.0818
    175  ND1       24.3390   27.3790   16.4360 N.ar  214  HIS214     -0.2268
    176  CD2       25.4930   26.8560   18.2230 C.ar  214  HIS214      0.1154
    177  CE1       24.0800   26.1160   16.7220 C.ar  214  HIS214      0.1986
    178  NE2       24.7600   25.7740   17.7990 N.ar  214  HIS214     -0.2212
    179  N         26.8700   29.0790   14.3280 N.am  215  LEU215     -0.1980
    180  CA        26.9520   28.3540   13.0810 C.3   215  LEU215      0.1596
    181  C         28.4240   28.1190   12.7260 C.2   215  LEU215      0.2287
    182  O         28.8130   27.0320   12.3060 O.2   215  LEU215     -0.2864
    183  CB        26.2860   29.0630   11.9030 C.3   215  LEU215      0.0297
    184  CG        24.7790   29.0350   11.7170 C.3   215  LEU215      0.0022
    185  CD1       24.4210   29.5500   10.3220 C.3   215  LEU215      0.0001
    186  CD2       24.1670   27.6620   11.9220 C.3   215  LEU215      0.0001
    187  N         31.0460   24.7090   11.9500 N.3   219  LYS219     -0.1245
    188  CA        31.4860   24.6940   10.5630 C.3   219  LYS219      0.1561
    189  C         32.6290   25.6850   10.3760 C.2   219  LYS219      0.2260
    190  O         33.5260   25.5670    9.5440 O.2   219  LYS219     -0.2867
    191  CB        30.3210   25.0390    9.6340 C.3   219  LYS219      0.0271
    192  CG        30.7220   24.9730    8.1770 C.3   219  LYS219      0.0035
    193  CD        29.5190   25.0550    7.2650 C.3   219  LYS219      0.0206
    194  CE        29.3780   26.4350    6.6710 C.3   219  LYS219      0.1093
    195  NZ        29.0120   27.4590    7.6700 N.3   219  LYS219     -0.1314
@<TRIPOS>BOND
     1    57    56    2
     2    40    39    2
     3    56    55    1
     4    39    38    1
     5    41    38    1
     6    41    42    1
     7    48    47    2
     8    55    54    1
     9    55    58    1
    10    45    46    1
    11    38    37    1
    12    47    54   am
    13    47    46    1
    14    58    59    1
    15    42    44   ar
    16    42    43   ar
    17    46    49    1
    18    37    34   am
    19    35    34    2
    20    59    60    1
    21    59    61    1
    22    27    26    2
    23    49    50    1
    24    34    33    1
    25    50    51    1
    26    20    19    2
    27    24    25    1
    28    26    25    1
    29    26    32   am
    30    25    28    1
    31    23    21    1
    32    19    18    1
    33    30    29    1
    34    33    32    1
    35    33    36    1
    36    51    52   ar
    37    51    53   ar
    38    28    29    1
    39    66    67    1
    40    66    63    1
    41    68    67   ar
    42    68    70   ar
    43    21    18    1
    44    21    22    1
    45    29    31    1
    46    67    69   ar
    47    18    17    1
    48    70    71   ar
    49    91    89    1
    50    69    71   ar
    51    69    72   ar
    52    63    62    1
    53    63    64    1
    54    71    73   ar
    55    12    11    2
    56    17    11   am
    57    72    74   ar
    58   194   193    1
    59   194   195    1
    60    11    10    1
    61    73    75   ar
    62    89    90    1
    63    89    88    1
    64    74    75   ar
    65   193   192    1
    66    64    65    2
    67    64    76   am
    68     9    10    1
    69   117   116    1
    70   122   121    2
    71    10    13    1
    72     4     3    2
    73   114   115    1
    74   114   113    1
    75   116   115    2
    76   116   118    1
    77   192   191    1
    78    84    85    1
    79    88    85    1
    80    85    86    1
    81    76    77    1
    82     3     2    1
    83   121   120    1
    84   113   112    1
    85    13    14    1
    86    77    80    1
    87    77    78    1
    88   190   189    2
    89   191   188    1
    90    86    87    2
    91    86    92   am
    92   123   120    1
    93   123   124    1
    94   120   119    1
    95     2     5    1
    96     2     1    1
    97    80    81    1
    98    78    79    2
    99    14    16    1
   100    14    15    1
   101   185   184    1
   102   189   188    1
   103   112   109    1
   104   188   187    1
   105     5     6    1
   106    92    93    1
   107   100   101    1
   108    83    82    1
   109    82    81    1
   110   125   124   ar
   111   125   127   ar
   112   124   126   ar
   113   109   108    1
   114   109   110    1
   115   101   104    1
   116   101   102    1
   117   184   183    1
   118   184   186    1
   119   183   180    1
   120   104   105    1
   121    93    94    1
   122    93    96    1
   123     6     7    1
   124   127   129   ar
   125   182   181    2
   126    94    95    2
   127   126   128   ar
   128   110   111    2
   129   181   180    1
   130   102   103    2
   131   106   105    1
   132     7     8    1
   133   105   107    1
   134   180   179    1
   135    96    97    1
   136    97    98    1
   137   129   128   ar
   138    99    98    1
   139   179   171   am
   140   168   167    2
   141   167   166    1
   142   171   172    2
   143   171   170    1
   144   166   165    1
   145   137   135    1
   146   156   154   ar
   147   156   155   ar
   148   164   162    1
   149   175   177   ar
   150   175   174   ar
   151   169   170    1
   152   154   152   ar
   153   163   162    1
   154   177   178   ar
   155   170   173    1
   156   135   134    1
   157   155   153   ar
   158   173   174    1
   159   174   176   ar
   160   162   161    1
   161   178   176   ar
   162   152   151   ar
   163   161   158    1
   164   136   134    1
   165   134   131    1
   166   144   142    1
   167   153   151   ar
   168   151   150    1
   169   160   159    2
   170   158   159    1
   171   158   157    1
   172   142   143    1
   173   142   139    1
   174   143   145    1
   175   131   132    1
   176   131   130    1
   177   141   140    2
   178   133   132    2
   179   150   147    1
   180   147   146    1
   181   147   148    1
   182   140   146   am
   183   140   139    1
   184   139   138    1
   185   149   148    2
