@<TRIPOS>MOLECULE
tmp/1qksA00.pdb
 209 200 0 0 0
SMALL
GASTEIGER

@<TRIPOS>ATOM
      1  N         30.6960   -9.2440   48.1270 N.3     8  ASP8       -0.1225
      2  CA        29.6740   -8.2300   48.3910 C.3     8  ASP8        0.1805
      3  C         29.8310   -6.9140   47.6330 C.2     8  ASP8        0.2597
      4  O         28.8410   -6.2500   47.3190 O.2     8  ASP8       -0.2718
      5  CB        29.6190   -7.9180   49.8870 C.3     8  ASP8        0.1424
      6  CG        28.9810   -9.0310   50.6990 C.2     8  ASP8        0.3668
      7  OD1       27.8440   -9.4280   50.3670 O.co2   8  ASP8       -0.2456
      8  OD2       29.6140   -9.4850   51.6780 O.co2   8  ASP8       -0.2456
      9  N         31.0680   -6.5310   47.3480 N.am    9  HIS9       -0.1975
     10  CA        31.3420   -5.2690   46.6850 C.3     9  HIS9        0.1656
     11  C         31.7630   -5.2850   45.2320 C.2     9  HIS9        0.2291
     12  O         32.2150   -4.2640   44.7040 O.2     9  HIS9       -0.2864
     13  CB        32.3410   -4.4620   47.5020 C.3     9  HIS9        0.0771
     14  CG        31.7050   -3.4830   48.4270 C.ar    9  HIS9        0.0820
     15  ND1       32.3430   -2.3690   48.9160 N.ar    9  HIS9       -0.2267
     16  CD2       30.4510   -3.4470   48.9490 C.ar    9  HIS9        0.1154
     17  CE1       31.4920   -1.7070   49.6990 C.ar    9  HIS9        0.1986
     18  NE2       30.3260   -2.3210   49.7490 N.ar    9  HIS9       -0.2212
     19  N         23.0870   -5.9360   40.8260 N.3    15  ASN15      -0.1240
     20  CA        23.3240   -4.9470   41.8830 C.3    15  ASN15       0.1653
     21  C         23.7560   -3.5950   41.2990 C.2    15  ASN15       0.2266
     22  O         24.2980   -2.7440   42.0020 O.2    15  ASN15      -0.2867
     23  CB        24.3260   -5.4410   42.9480 C.3    15  ASN15       0.1155
     24  CG        25.7460   -5.5930   42.4190 C.2    15  ASN15       0.2627
     25  OD1       26.0060   -5.4140   41.2380 O.2    15  ASN15      -0.2716
     26  ND2       26.6660   -5.9660   43.3000 N.am   15  ASN15      -0.0877
     27  N         20.7440    0.1760   41.7520 N.3    18  GLU18      -0.1245
     28  CA        20.4130    0.8120   43.0280 C.3    18  GLU18       0.1567
     29  C         20.5830    2.3160   42.8060 C.2    18  GLU18       0.2260
     30  O         21.3570    2.7390   41.9460 O.2    18  GLU18      -0.2867
     31  CB        21.2680    0.2730   44.1800 C.3    18  GLU18       0.0388
     32  CG        21.0020   -1.2080   44.4870 C.3    18  GLU18       0.1160
     33  CD        19.5100   -1.5590   44.6050 C.2    18  GLU18       0.3649
     34  OE1       18.7880   -0.9510   45.4240 O.co2  18  GLU18      -0.2457
     35  OE2       19.0540   -2.4700   43.8750 O.co2  18  GLU18      -0.2457
     36  N         31.1400   11.2120   46.7530 N.3    52  ILE52      -0.1231
     37  CA        31.3490    9.8240   46.3790 C.3    52  ILE52       0.1692
     38  C         30.2810    8.9820   47.0750 C.2    52  ILE52       0.2592
     39  O         29.6190    8.1570   46.4480 O.2    52  ILE52      -0.2718
     40  CB        32.7600    9.3190   46.8020 C.3    52  ILE52       0.0266
     41  CG1       33.8550   10.0380   46.0080 C.3    52  ILE52       0.0019
     42  CG2       32.8630    7.8130   46.6070 C.3    52  ILE52       0.0020
     43  CD1       35.2650    9.7950   46.5360 C.3    52  ILE52       0.0001
     44  N         30.0660    9.2370   48.3580 N.am   53  TYR53      -0.1976
     45  CA        29.0880    8.4670   49.1110 C.3    53  TYR53       0.1639
     46  C         27.6910    8.5490   48.5080 C.2    53  TYR53       0.2290
     47  O         27.0380    7.5200   48.2970 O.2    53  TYR53      -0.2864
     48  CB        29.0520    8.8750   50.5790 C.3    53  TYR53       0.0560
     49  CG        28.2220    7.9290   51.4070 C.ar   53  TYR53      -0.0198
     50  CD1       28.7380    6.7010   51.8120 C.ar   53  TYR53      -0.0009
     51  CD2       26.8890    8.2110   51.6930 C.ar   53  TYR53      -0.0009
     52  CE1       27.9540    5.7720   52.4710 C.ar   53  TYR53       0.0417
     53  CE2       26.0920    7.2860   52.3530 C.ar   53  TYR53       0.0417
     54  CZ        26.6270    6.0650   52.7300 C.ar   53  TYR53       0.1957
     55  OH        25.8400    5.1100   53.3230 O.3    53  TYR53      -0.2866
     56  N         27.7380    6.9030   44.8320 N.3    56  ARG56      -0.1231
     57  CA        28.0570    5.4880   44.7540 C.3    56  ARG56       0.1694
     58  C         27.6290    4.5380   45.8480 C.2    56  ARG56       0.2592
     59  O         27.5060    3.3400   45.6020 O.2    56  ARG56      -0.2718
     60  CB        29.5680    5.3200   44.6560 C.3    56  ARG56       0.0321
     61  CG        30.2790    6.2200   43.6710 C.3    56  ARG56       0.0489
     62  CD        31.7230    5.7900   43.5700 C.3    56  ARG56       0.2205
     63  NE        32.5210    6.7440   42.8190 N.pl3  56  ARG56      -0.0865
     64  CZ        33.7360    6.4940   42.3540 C.cat  56  ARG56       0.5346
     65  NH1       34.2940    5.3130   42.5640 N.pl3  56  ARG56       0.1354
     66  NH2       34.3880    7.4210   41.6680 N.pl3  56  ARG56       0.1354
     67  N         27.4560    5.0500   47.0600 N.am   57  CYS57      -0.1970
     68  CA        27.1790    4.1910   48.2030 C.3    57  CYS57       0.1712
     69  C         25.8170    4.2830   48.8590 C.2    57  CYS57       0.2296
     70  O         25.3350    3.3120   49.4490 O.2    57  CYS57      -0.2864
     71  CB        28.2220    4.4600   49.2860 C.3    57  CYS57       0.0983
     72  SG        29.8790    4.8760   48.6960 S.3    57  CYS57      -0.0798
     73  N         22.8820    4.5330   47.6560 N.3    59  GLY59      -0.1210
     74  CA        21.8210    3.7200   47.0880 C.3    59  GLY59       0.1956
     75  C         21.6520    2.4480   47.8980 C.2    59  GLY59       0.2612
     76  O         20.5340    2.0810   48.2560 O.2    59  GLY59      -0.2717
     77  N         22.7580    1.8020   48.2400 N.am   60  CYS60      -0.1956
     78  CA        22.6910    0.5680   49.0050 C.3    60  CYS60       0.1843
     79  C         22.7090    0.7130   50.5060 C.2    60  CYS60       0.2625
     80  O         22.1240   -0.1140   51.2090 O.2    60  CYS60      -0.2714
     81  CB        23.8180   -0.3750   48.5880 C.3    60  CYS60       0.0997
     82  SG        23.6720   -0.8750   46.8530 S.3    60  CYS60      -0.0797
     83  N         23.3670    1.7540   51.0020 N.am   61  HIS61      -0.1973
     84  CA        23.4990    1.9390   52.4420 C.3    61  HIS61       0.1656
     85  C         22.7040    3.0900   53.0700 C.2    61  HIS61       0.2291
     86  O         22.6100    3.1580   54.2980 O.2    61  HIS61      -0.2864
     87  CB        24.9830    2.0700   52.8130 C.3    61  HIS61       0.0771
     88  CG        25.8070    0.8620   52.4860 C.ar   61  HIS61       0.0820
     89  ND1       25.7850   -0.3040   53.2180 N.ar   61  HIS61      -0.2267
     90  CD2       26.7380    0.6710   51.5160 C.ar   61  HIS61       0.1154
     91  CE1       26.6830   -1.1500   52.6970 C.ar   61  HIS61       0.1986
     92  NE2       27.2910   -0.6080   51.6580 N.ar   61  HIS61      -0.2212
     93  N         19.6960   -2.1520   50.7790 N.3    69  THR69      -0.1203
     94  CA        20.0190   -3.5170   50.3710 C.3    69  THR69       0.1994
     95  C         21.3380   -3.9050   51.0620 C.2    69  THR69       0.2618
     96  O         21.6100   -5.0860   51.2670 O.2    69  THR69      -0.2717
     97  CB        20.1490   -3.6580   48.8430 C.3    69  THR69       0.1784
     98  OG1       20.9540   -2.5960   48.3280 O.3    69  THR69      -0.2211
     99  CG2       18.7740   -3.6230   48.1860 C.3    69  THR69       0.0376
    100  N         22.1520   -2.8980   51.3880 N.am   70  GLY70      -0.1942
    101  CA        23.4010   -3.1080   52.0900 C.3    70  GLY70       0.2014
    102  C         23.1720   -2.7220   53.5380 C.2    70  GLY70       0.2638
    103  O         22.3130   -1.8860   53.8340 O.2    70  GLY70      -0.2714
    104  N         23.9740   -3.2750   54.4450 N.am   71  LYS71      -0.1977
    105  CA        23.8060   -3.0190   55.8780 C.3    71  LYS71       0.1596
    106  C         24.0730   -1.5970   56.3570 C.2    71  LYS71       0.2287
    107  O         24.6400   -0.7660   55.6500 O.2    71  LYS71      -0.2864
    108  CB        24.6560   -4.0040   56.6790 C.3    71  LYS71       0.0298
    109  CG        26.1560   -3.8020   56.5200 C.3    71  LYS71       0.0038
    110  CD        26.9570   -4.8580   57.2770 C.3    71  LYS71       0.0206
    111  CE        26.5800   -4.8720   58.7530 C.3    71  LYS71       0.1093
    112  NZ        26.8760   -3.5690   59.3950 N.3    71  LYS71      -0.1314
    113  N         25.7420    1.4990   58.1930 N.3    73  LEU73      -0.1245
    114  CA        27.1280    1.9310   58.3230 C.3    73  LEU73       0.1561
    115  C         27.1970    3.1350   59.2560 C.2    73  LEU73       0.2260
    116  O         27.9760    4.0600   59.0320 O.2    73  LEU73      -0.2867
    117  CB        27.7190    2.3060   56.9610 C.3    73  LEU73       0.0270
    118  CG        27.8220    1.1870   55.9170 C.3    73  LEU73       0.0019
    119  CD1       28.3550    1.7570   54.6170 C.3    73  LEU73       0.0001
    120  CD2       28.7280    0.0790   56.4070 C.3    73  LEU73       0.0001
    121  N         34.3050   -1.4710   63.9420 N.3    81  LEU81      -0.1245
    122  CA        35.0390   -2.1690   62.8920 C.3    81  LEU81       0.1561
    123  C         36.4550   -1.6110   62.8230 C.2    81  LEU81       0.2260
    124  O         37.4170   -2.3640   62.6650 O.2    81  LEU81      -0.2867
    125  CB        34.3500   -1.9920   61.5320 C.3    81  LEU81       0.0270
    126  CG        33.0110   -2.6900   61.2920 C.3    81  LEU81       0.0019
    127  CD1       32.3990   -2.1790   59.9990 C.3    81  LEU81       0.0001
    128  CD2       33.2010   -4.1990   61.2400 C.3    81  LEU81       0.0001
    129  N         40.0920   -1.9500   59.1170 N.3    85  TYR85      -0.1227
    130  CA        39.1670   -2.8520   58.4450 C.3    85  TYR85       0.1736
    131  C         38.4890   -2.1120   57.2960 C.2    85  TYR85       0.2595
    132  O         38.4110   -2.6190   56.1750 O.2    85  TYR85      -0.2718
    133  CB        38.1100   -3.3890   59.4150 C.3    85  TYR85       0.0548
    134  CG        36.9680   -4.1080   58.7270 C.ar   85  TYR85      -0.0200
    135  CD1       37.0870   -5.4460   58.3500 C.ar   85  TYR85      -0.0009
    136  CD2       35.7840   -3.4390   58.4130 C.ar   85  TYR85      -0.0009
    137  CE1       36.0600   -6.0980   57.6720 C.ar   85  TYR85       0.0417
    138  CE2       34.7510   -4.0820   57.7330 C.ar   85  TYR85       0.0417
    139  CZ        34.8940   -5.4080   57.3670 C.ar   85  TYR85       0.1957
    140  OH        33.8810   -6.0390   56.6880 O.3    85  TYR85      -0.2866
    141  N         37.9840   -0.9150   57.5870 N.am   86  LEU86      -0.1980
    142  CA        37.2940   -0.1020   56.5870 C.3    86  LEU86       0.1596
    143  C         38.1900    0.2020   55.3900 C.2    86  LEU86       0.2287
    144  O         37.7720    0.0460   54.2430 O.2    86  LEU86      -0.2864
    145  CB        36.7880    1.1960   57.2260 C.3    86  LEU86       0.0297
    146  CG        35.7520    1.0330   58.3400 C.3    86  LEU86       0.0022
    147  CD1       35.5270    2.3630   59.0280 C.3    86  LEU86       0.0001
    148  CD2       34.4420    0.4920   57.7820 C.3    86  LEU86       0.0001
    149  N         38.7790   -3.0460   53.4110 N.3    89  PHE89      -0.1227
    150  CA        37.5470   -3.4430   52.7430 C.3    89  PHE89       0.1736
    151  C         37.2660   -2.5470   51.5350 C.2    89  PHE89       0.2595
    152  O         37.1040   -3.0360   50.4170 O.2    89  PHE89      -0.2718
    153  CB        36.3710   -3.3880   53.7350 C.3    89  PHE89       0.0547
    154  CG        35.1020   -4.0170   53.2210 C.ar   89  PHE89      -0.0202
    155  CD1       34.2440   -3.3110   52.3820 C.ar   89  PHE89      -0.0042
    156  CD2       34.7540   -5.3130   53.5930 C.ar   89  PHE89      -0.0042
    157  CE1       33.0600   -3.8820   51.9230 C.ar   89  PHE89      -0.0003
    158  CE2       33.5700   -5.8930   53.1390 C.ar   89  PHE89      -0.0003
    159  CZ        32.7230   -5.1750   52.3020 C.ar   89  PHE89      -0.0000
    160  N         37.2860   -1.2380   51.7620 N.am   90  ILE90      -0.1980
    161  CA        36.9950   -0.2550   50.7220 C.3    90  ILE90       0.1595
    162  C         38.0170   -0.1970   49.5830 C.2    90  ILE90       0.2287
    163  O         37.7130    0.3030   48.4960 O.2    90  ILE90      -0.2864
    164  CB        36.7510    1.1420   51.3550 C.3    90  ILE90       0.0276
    165  CG1       35.5500    1.0570   52.3080 C.3    90  ILE90       0.0022
    166  CG2       36.4940    2.2020   50.2830 C.3    90  ILE90       0.0022
    167  CD1       35.3520    2.2790   53.1680 C.3    90  ILE90       0.0001
    168  N         36.9770   -1.3390   46.2770 N.3    93  ALA93      -0.1231
    169  CA        36.0240   -0.4810   45.5780 C.3    93  ALA93       0.1694
    170  C         34.5890   -0.9460   45.8260 C.2    93  ALA93       0.2593
    171  O         34.3160   -1.6330   46.8080 O.2    93  ALA93      -0.2718
    172  CB        36.3310   -0.4630   44.1110 C.3    93  ALA93       0.0304
    173  N         33.6630   -0.5380   44.9650 N.am   94  SER94      -0.1939
    174  CA        32.2690   -0.9140   45.1430 C.3    94  SER94       0.2040
    175  C         31.6020   -1.2690   43.8190 C.2    94  SER94       0.2485
    176  O         32.1730   -1.0500   42.7480 O.2    94  SER94      -0.2729
    177  CB        31.5220    0.2070   45.8750 C.3    94  SER94       0.2129
    178  OG        31.6140    1.4290   45.1770 O.3    94  SER94      -0.2179
    179  N         30.3950   -1.8530   43.8740 N.am   95  PRO95      -0.2726
    180  CA        29.6970   -2.2310   42.6440 C.3    95  PRO95       0.1402
    181  C         29.4750   -1.0880   41.6600 C.2    95  PRO95       0.2269
    182  O         29.1600    0.0470   42.0480 O.2    95  PRO95      -0.2865
    183  CB        28.3810   -2.8070   43.1600 C.3    95  PRO95       0.0296
    184  CG        28.7700   -3.3940   44.4740 C.3    95  PRO95       0.0237
    185  CD        29.6350   -2.3000   45.0550 C.3    95  PRO95       0.0939
    186  N         38.1660    3.1720   43.1410 N.3   107  LEU107     -0.1245
    187  CA        38.6320    4.2440   44.0140 C.3   107  LEU107      0.1561
    188  C         40.1480    4.2910   44.1040 C.2   107  LEU107      0.2260
    189  O         40.8090    3.2520   44.1260 O.2   107  LEU107     -0.2867
    190  CB        38.0770    4.0540   45.4260 C.3   107  LEU107      0.0270
    191  CG        36.5680    4.1470   45.6410 C.3   107  LEU107      0.0019
    192  CD1       36.2030    3.5200   46.9740 C.3   107  LEU107      0.0001
    193  CD2       36.1060    5.5970   45.5740 C.3   107  LEU107      0.0001
    194  N         36.9040    7.7150   52.2790 N.3   115  MET115     -0.1245
    195  CA        35.6780    6.9770   52.5700 C.3   115  MET115      0.1570
    196  C         35.7060    6.2940   53.9380 C.2   115  MET115      0.2261
    197  O         34.7200    6.3310   54.6780 O.2   115  MET115     -0.2867
    198  CB        35.3750    5.9710   51.4590 C.3   115  MET115      0.0387
    199  CG        35.1660    6.6090   50.0830 C.3   115  MET115      0.0595
    200  SD        34.1410    8.0810   50.1070 S.3   115  MET115     -0.1393
    201  CE        32.5750    7.3810   50.6350 C.3   115  MET115      0.0692
    202  N         33.0970    7.3960   56.9410 N.3   119  LEU119     -0.1245
    203  CA        32.2090    6.4510   57.6160 C.3   119  LEU119      0.1561
    204  C         32.3330    6.4580   59.1380 C.2   119  LEU119      0.2260
    205  O         31.4350    5.9830   59.8290 O.2   119  LEU119     -0.2867
    206  CB        32.4200    5.0310   57.0840 C.3   119  LEU119      0.0270
    207  CG        32.0640    4.7550   55.6240 C.3   119  LEU119      0.0019
    208  CD1       32.3490    3.2940   55.3060 C.3   119  LEU119      0.0001
    209  CD2       30.6030    5.0870   55.3600 C.3   119  LEU119      0.0001
@<TRIPOS>BOND
     1    19    20    1
     2    25    24    2
     3    21    20    1
     4    21    22    2
     5   181   182    2
     6   181   180    1
     7    66    64    1
     8    27    28    1
     9    20    23    1
    10    30    29    2
    11    64    65    1
    12    64    63    2
    13    24    23    1
    14    24    26   am
    15   180   183    1
    16   180   179    1
    17   176   175    2
    18    29    28    1
    19    63    62    1
    20    28    31    1
    21   186   187    1
    22   183   184    1
    23    62    61    1
    24    61    60    1
    25   175   179   am
    26   175   174    1
    27   179   185    1
    28    35    33   ar
    29   187   188    1
    30   187   190    1
    31   188   189    2
    32   172   169    1
    33    31    32    1
    34   184   185    1
    35    32    33    1
    36    33    34   ar
    37    60    57    1
    38    12    11    2
    39    57    56    1
    40    57    58    1
    41   173   174    1
    42   173   170   am
    43   174   177    1
    44   178   177    1
    45    11    10    1
    46   190   191    1
    47   193   191    1
    48   169   170    1
    49   169   168    1
    50    59    58    2
    51   191   192    1
    52   170   171    2
    53    58    67   am
    54    41    43    1
    55    41    40    1
    56    37    36    1
    57    37    40    1
    58    37    38    1
    59    39    38    2
    60    42    40    1
    61    10     9    1
    62    10    13    1
    63    82    81    1
    64    67    68    1
    65    38    44   am
    66    74    73    1
    67    74    75    1
    68     4     3    2
    69     9     3   am
    70    13    14    1
    71     3     2    1
    72    75    77   am
    73    75    76    2
    74     1     2    1
    75    99    97    1
    76    68    69    1
    77    68    71    1
    78    77    78    1
    79    47    46    2
    80    98    97    1
    81    44    45    1
    82     2     5    1
    83    14    15   ar
    84    14    16   ar
    85   163   162    2
    86    46    45    1
    87    81    78    1
    88    72    71    1
    89    97    94    1
    90    69    70    2
    91    15    17   ar
    92    16    18   ar
    93    78    79    1
    94    45    48    1
    95   162   161    1
    96    17    18   ar
    97     5     6    1
    98   199   200    1
    99   199   198    1
   100   200   201    1
   101   166   164    1
   102     7     6   ar
   103    94    93    1
   104    94    95    1
   105   152   151    2
   106    79    83   am
   107    79    80    2
   108    48    49    1
   109     6     8   ar
   110   161   164    1
   111   161   160    1
   112    83    84    1
   113    95    96    2
   114    95   100   am
   115   164   165    1
   116   100   101    1
   117    49    51   ar
   118    49    50   ar
   119   198   195    1
   120    90    92   ar
   121    90    88   ar
   122   151   160   am
   123   151   150    1
   124    92    91   ar
   125    51    53   ar
   126    50    52   ar
   127   157   159   ar
   128   157   155   ar
   129   101   102    1
   130   194   195    1
   131   159   158   ar
   132   165   167    1
   133    53    54   ar
   134   155   154   ar
   135    84    87    1
   136    84    85    1
   137    52    54   ar
   138    88    87    1
   139    88    89   ar
   140   195   196    1
   141    91    89   ar
   142    54    55    1
   143   150   149    1
   144   150   153    1
   145    85    86    2
   146   158   156   ar
   147   154   156   ar
   148   154   153    1
   149   102   103    2
   150   102   104   am
   151   196   197    2
   152   144   143    2
   153   104   105    1
   154   119   118    1
   155   208   207    1
   156   209   207    1
   157   143   142    1
   158   207   206    1
   159   107   106    2
   160   105   106    1
   161   105   108    1
   162   118   120    1
   163   118   117    1
   164   132   131    2
   165   109   108    1
   166   109   110    1
   167   142   145    1
   168   142   141    1
   169   140   139    1
   170   202   203    1
   171   117   114    1
   172   206   203    1
   173   145   146    1
   174   110   111    1
   175   131   141   am
   176   131   130    1
   177   139   137   ar
   178   139   138   ar
   179   203   204    1
   180   137   135   ar
   181   138   136   ar
   182   148   146    1
   183   113   114    1
   184   114   115    1
   185   146   147    1
   186   135   134   ar
   187   136   134   ar
   188   130   129    1
   189   130   133    1
   190   134   133    1
   191   111   112    1
   192   116   115    2
   193   204   205    2
   194   127   126    1
   195   128   126    1
   196   126   125    1
   197   125   122    1
   198   124   123    2
   199   123   122    1
   200   122   121    1
