@<TRIPOS>MOLECULE
tmp/1qkzB00.pdb
 132 132 0 0 0
SMALL
GASTEIGER

@<TRIPOS>ATOM
      1  N         -8.5660   22.8350   30.1430 N.3    31  ASP31      -0.1239
      2  CA        -7.8790   23.8230   30.9290 C.3    31  ASP31       0.1674
      3  C         -6.3570   23.6970   30.8870 C.2    31  ASP31       0.2266
      4  O         -5.6950   24.4890   31.5610 O.2    31  ASP31      -0.2867
      5  CB        -8.2660   23.6670   32.4080 C.3    31  ASP31       0.1410
      6  CG        -9.6220   24.2740   32.7190 C.2    31  ASP31       0.3668
      7  OD1      -10.1390   25.0500   31.8800 O.co2  31  ASP31      -0.2456
      8  OD2      -10.1270   23.9370   33.8090 O.co2  31  ASP31      -0.2456
      9  N         -2.4640   23.1470   28.9760 N.3    33  TYR33      -0.1241
     10  CA        -1.5630   23.0730   27.8230 C.3    33  TYR33       0.1605
     11  C         -1.0970   21.5990   27.8090 C.2    33  TYR33       0.2264
     12  O         -1.0380   20.9640   28.8730 O.2    33  TYR33      -0.2867
     13  CB        -0.3430   23.9470   27.9160 C.3    33  TYR33       0.0534
     14  CG        -0.4670   25.3990   27.5490 C.ar   33  TYR33      -0.0201
     15  CD1       -1.5250   26.1920   27.9810 C.ar   33  TYR33      -0.0009
     16  CD2        0.5150   25.9800   26.7440 C.ar   33  TYR33      -0.0009
     17  CE1       -1.6140   27.5250   27.5950 C.ar   33  TYR33       0.0417
     18  CE2        0.4380   27.3180   26.3850 C.ar   33  TYR33       0.0417
     19  CZ        -0.6250   28.0750   26.8050 C.ar   33  TYR33       0.1957
     20  OH        -0.6790   29.4040   26.4090 O.3    33  TYR33      -0.2866
     21  N          1.6760   18.5590   25.8120 N.3    35  PHE35      -0.1241
     22  CA         2.8580   18.3710   25.0190 C.3    35  PHE35       0.1605
     23  C          2.9250   16.9700   24.3750 C.2    35  PHE35       0.2264
     24  O          2.2870   16.0630   24.8820 O.2    35  PHE35      -0.2867
     25  CB         4.1680   18.4530   25.8210 C.3    35  PHE35       0.0534
     26  CG         4.2280   19.6200   26.7580 C.ar   35  PHE35      -0.0203
     27  CD1        4.6150   20.8690   26.3130 C.ar   35  PHE35      -0.0042
     28  CD2        3.8250   19.4550   28.0760 C.ar   35  PHE35      -0.0042
     29  CE1        4.6560   21.9420   27.1800 C.ar   35  PHE35      -0.0003
     30  CE2        3.8610   20.5440   28.9420 C.ar   35  PHE35      -0.0003
     31  CZ         4.2840   21.7810   28.5100 C.ar   35  PHE35      -0.0000
     32  N         11.6060   17.2300   23.5110 N.3    47  TRP47      -0.1241
     33  CA        10.2960   17.8560   23.3750 C.3    47  TRP47       0.1605
     34  C          9.9990   18.0710   21.8810 C.2    47  TRP47       0.2264
     35  O         10.8700   18.5920   21.1890 O.2    47  TRP47      -0.2867
     36  CB        10.3450   19.2100   24.0840 C.3    47  TRP47       0.0550
     37  CG         9.2360   20.1300   23.6790 C.ar   47  TRP47       0.0003
     38  CD1        7.9120   19.9940   23.9550 C.ar   47  TRP47       0.0946
     39  CD2        9.3610   21.3040   22.8660 C.ar   47  TRP47       0.0152
     40  NE1        7.1990   21.0280   23.3980 N.ar   47  TRP47      -0.2442
     41  CE2        8.0800   21.8450   22.7180 C.ar   47  TRP47       0.0810
     42  CE3       10.4500   21.9500   22.2570 C.ar   47  TRP47       0.0012
     43  CZ2        7.8300   23.0080   21.9800 C.ar   47  TRP47       0.0191
     44  CZ3       10.2080   23.0940   21.5300 C.ar   47  TRP47       0.0001
     45  CH2        8.9080   23.6280   21.4220 C.ar   47  TRP47       0.0015
     46  N          4.0510   21.5850   21.5840 N.3    50  THR50      -0.1218
     47  CA         3.2150   22.1780   22.6040 C.3    50  THR50       0.1862
     48  C          1.9750   22.8100   21.9700 C.2    50  THR50       0.2287
     49  O          2.0960   23.4290   20.8860 O.2    50  THR50      -0.2866
     50  CB         3.9080   23.3220   23.3680 C.3    50  THR50       0.1770
     51  OG1        5.0430   22.7350   23.9880 O.3    50  THR50      -0.2211
     52  CG2        2.9940   23.9660   24.4270 C.3    50  THR50       0.0375
     53  N         -4.0770   25.3400   25.9160 N.3    53  ASP53      -0.1239
     54  CA        -5.3220   24.7940   26.4070 C.3    53  ASP53       0.1674
     55  C         -6.4790   24.8650   25.4270 C.2    53  ASP53       0.2266
     56  O         -7.1720   23.8700   25.1330 O.2    53  ASP53      -0.2867
     57  CB        -5.7590   25.4820   27.7070 C.3    53  ASP53       0.1410
     58  CG        -5.7950   26.9830   27.7760 C.2    53  ASP53       0.3668
     59  OD1       -5.3070   27.6990   26.8890 O.co2  53  ASP53      -0.2456
     60  OD2       -6.2710   27.5540   28.7990 O.co2  53  ASP53      -0.2456
     61  N          3.5680   25.2830   19.3440 N.3    59  TYR59      -0.1241
     62  CA         4.9940   25.5100   19.4340 C.3    59  TYR59       0.1605
     63  C          5.7490   24.2290   19.1140 C.2    59  TYR59       0.2264
     64  O          5.2530   23.1170   19.3340 O.2    59  TYR59      -0.2867
     65  CB         5.4630   25.9900   20.8340 C.3    59  TYR59       0.0534
     66  CG         4.6830   27.2100   21.2780 C.ar   59  TYR59      -0.0201
     67  CD1        3.4480   27.0500   21.9060 C.ar   59  TYR59      -0.0009
     68  CD2        5.1290   28.4900   20.9650 C.ar   59  TYR59      -0.0009
     69  CE1        2.6690   28.1450   22.2280 C.ar   59  TYR59       0.0417
     70  CE2        4.3570   29.5840   21.3270 C.ar   59  TYR59       0.0417
     71  CZ         3.1480   29.4060   21.9770 C.ar   59  TYR59       0.1957
     72  OH         2.3910   30.5030   22.3130 O.3    59  TYR59      -0.2866
     73  N          0.7140   19.9170   30.9870 N.3    99  ASP99      -0.1225
     74  CA         1.2920   21.0780   31.6760 C.3    99  ASP99       0.1794
     75  C          0.4570   21.4020   32.9120 C.2    99  ASP99       0.2477
     76  O         -0.7490   21.6510   32.8360 O.2    99  ASP99      -0.2730
     77  CB         1.2350   22.2880   30.7430 C.3    99  ASP99       0.1423
     78  CG         1.7930   23.5610   31.3320 C.2    99  ASP99       0.3668
     79  OD1        2.9300   23.5880   31.8440 O.co2  99  ASP99      -0.2456
     80  OD2        1.0790   24.6020   31.2500 O.co2  99  ASP99      -0.2456
     81  N          1.0670   21.4250   34.0860 N.am  100  PRO100     -0.2492
     82  CA         0.3650   21.7860   35.3120 C.3   100  PRO100      0.1619
     83  C         -0.1000   23.2270   35.2560 C.2   100  PRO100      0.2605
     84  O          0.4370   24.0130   34.4630 O.2   100  PRO100     -0.2715
     85  CB         1.3540   21.5580   36.4410 C.3   100  PRO100      0.0570
     86  CG         2.6580   21.2400   35.8100 C.2   100  PRO100     -0.0077
     87  CD         2.4790   21.1350   34.3250 C.2   100  PRO100      0.0634
     88  N         -1.1080   23.5870   36.0700 N.am  101  LEU101     -0.1964
     89  CA        -1.5980   24.9630   35.9880 C.3   101  LEU101      0.1728
     90  C         -0.7090   26.0290   36.5780 C.2   101  LEU101      0.2616
     91  O         -0.6470   27.1370   36.0170 O.2   101  LEU101     -0.2715
     92  CB        -2.9990   25.0680   36.6250 C.3   101  LEU101      0.0311
     93  CG        -4.1030   24.2530   35.9500 C.3   101  LEU101      0.0022
     94  CD1       -5.4930   24.4880   36.5370 C.3   101  LEU101      0.0001
     95  CD2       -4.1360   24.4830   34.4410 C.3   101  LEU101      0.0001
     96  N         -0.0200   25.7680   37.6820 N.am  102  GLU102     -0.1963
     97  CA         0.7030   26.8290   38.3730 C.3   102  GLU102      0.1733
     98  C          2.1930   26.9450   38.1480 C.2   102  GLU102      0.2616
     99  O          2.8030   27.7280   38.8660 O.2   102  GLU102     -0.2715
    100  CB         0.4570   26.7180   39.8900 C.3   102  GLU102      0.0429
    101  CG        -0.2820   25.4970   40.3340 C.3   102  GLU102      0.1163
    102  CD        -1.4090   25.6450   41.3110 C.2   102  GLU102      0.3649
    103  OE1       -1.1230   26.1160   42.4420 O.co2 102  GLU102     -0.2457
    104  OE2       -2.5590   25.2530   40.9970 O.co2 102  GLU102     -0.2457
    105  N          2.7630   26.1640   37.2500 N.am  103  TYR103     -0.1960
    106  CA         4.1900   26.2670   36.9590 C.3   103  TYR103      0.1771
    107  C          4.3880   25.6820   35.5610 C.2   103  TYR103      0.2620
    108  O          3.5170   24.9290   35.1110 O.2   103  TYR103     -0.2715
    109  CB         5.0270   25.5380   37.9910 C.3   103  TYR103      0.0574
    110  CG         4.7540   24.0810   38.2750 C.ar  103  TYR103     -0.0198
    111  CD1        3.7990   23.6870   39.2080 C.ar  103  TYR103     -0.0009
    112  CD2        5.4760   23.0640   37.6470 C.ar  103  TYR103     -0.0009
    113  CE1        3.5590   22.3500   39.4750 C.ar  103  TYR103      0.0417
    114  CE2        5.2720   21.7290   37.9170 C.ar  103  TYR103      0.0417
    115  CZ         4.2900   21.3710   38.8280 C.ar  103  TYR103      0.1957
    116  OH         4.0300   20.0650   39.1260 O.3   103  TYR103     -0.2866
    117  N          5.4420   26.0620   34.8630 N.am  104  TYR104     -0.1960
    118  CA         5.7280   25.4690   33.5390 C.3   104  TYR104      0.1771
    119  C          6.3600   24.1170   33.8480 C.2   104  TYR104      0.2620
    120  O          7.3850   24.0640   34.5580 O.2   104  TYR104     -0.2715
    121  CB         6.7760   26.3250   32.8010 C.3   104  TYR104      0.0574
    122  CG         6.3870   27.7740   32.6290 C.ar  104  TYR104     -0.0198
    123  CD1        5.4390   28.0950   31.6740 C.ar  104  TYR104     -0.0009
    124  CD2        6.9160   28.8140   33.3880 C.ar  104  TYR104     -0.0009
    125  CE1        5.0360   29.3890   31.4620 C.ar  104  TYR104      0.0417
    126  CE2        6.5170   30.1300   33.1840 C.ar  104  TYR104      0.0417
    127  CZ         5.5670   30.4210   32.2340 C.ar  104  TYR104      0.1957
    128  OH         5.0960   31.6870   31.9830 O.3   104  TYR104     -0.2866
    129  N          5.7990   23.0200   33.3810 N.am  105  GLY105     -0.1954
    130  CA         6.3760   21.7140   33.6620 C.3   105  GLY105      0.1869
    131  C          5.5930   20.6370   32.9520 C.2   105  GLY105      0.2309
    132  O          4.8120   20.9320   32.0350 O.2   105  GLY105     -0.2863
@<TRIPOS>BOND
     1    63    64    2
     2    63    62    1
     3    61    62    1
     4    62    65    1
     5    65    66    1
     6    49    48    2
     7    68    66   ar
     8    68    70   ar
     9    35    34    2
    10    66    67   ar
    11    70    71   ar
    12    45    44   ar
    13    45    43   ar
    14    44    42   ar
    15    46    47    1
    16    34    33    1
    17    67    69   ar
    18    48    47    1
    19    71    69   ar
    20    71    72    1
    21    43    41   ar
    22    42    39   ar
    23    47    50    1
    24    41    39   ar
    25    41    40   ar
    26    39    37   ar
    27    50    51    1
    28    50    52    1
    29    33    32    1
    30    33    36    1
    31    40    38   ar
    32    37    38   ar
    33    37    36    1
    34    23    24    2
    35    23    22    1
    36    22    21    1
    37    22    25    1
    38    56    55    2
    39    55    54    1
    40    25    26    1
    41    53    54    1
    42    27    26   ar
    43    27    29   ar
    44    18    16   ar
    45    18    19   ar
    46    54    57    1
    47    20    19    1
    48    16    14   ar
    49    26    28   ar
    50    19    17   ar
    51    59    58   ar
    52    29    31   ar
    53    14    13    1
    54    14    15   ar
    55    17    15   ar
    56    57    58    1
    57    58    60   ar
    58    11    10    1
    59    11    12    2
    60    10    13    1
    61    10     9    1
    62    28    30   ar
    63    31    30   ar
    64     1     2    1
    65    77    78    1
    66    77    74    1
    67     3     2    1
    68     3     4    2
    69     2     5    1
    70    73    74    1
    71    80    78   ar
    72    78    79   ar
    73   125   123   ar
    74   125   127   ar
    75   123   122   ar
    76    74    75    1
    77     7     6   ar
    78   128   127    1
    79   132   131    2
    80   127   126   ar
    81     5     6    1
    82   122   121    1
    83   122   124   ar
    84     6     8   ar
    85   121   118    1
    86    76    75    2
    87    75    81   am
    88   131   130    1
    89   126   124   ar
    90   129   130    1
    91   129   119   am
    92   118   119    1
    93   118   117    1
    94   119   120    2
    95    81    87    1
    96    81    82    1
    97    87    86    2
    98    95    93    1
    99    84    83    2
   100   117   107   am
   101   108   107    2
   102    83    82    1
   103    83    88   am
   104    82    85    1
   105   107   106    1
   106    86    85    1
   107    93    94    1
   108    93    92    1
   109    89    88    1
   110    89    90    1
   111    89    92    1
   112    91    90    2
   113    90    96   am
   114   106   105    1
   115   106   109    1
   116   105    98   am
   117   112   114   ar
   118   112   110   ar
   119    96    97    1
   120   114   115   ar
   121   109   110    1
   122    98    97    1
   123    98    99    2
   124   110   111   ar
   125    97   100    1
   126   115   116    1
   127   115   113   ar
   128   111   113   ar
   129   100   101    1
   130   101   102    1
   131   104   102   ar
   132   102   103   ar
