@<TRIPOS>MOLECULE
tmp/1ql6A00.pdb
 195 184 0 0 0
SMALL
GASTEIGER

@<TRIPOS>ATOM
      1  N         15.2010    9.8500   12.4710 N.3    15  LEU15      -0.1231
      2  CA        14.0980   10.4450   11.7450 C.3    15  LEU15       0.1693
      3  C         14.3720   11.9320   11.4820 C.2    15  LEU15       0.2593
      4  O         13.7360   12.5220   10.6220 O.2    15  LEU15      -0.2718
      5  CB        12.7610   10.3700   12.4740 C.3    15  LEU15       0.0284
      6  CG        12.2320    9.0340   13.0080 C.3    15  LEU15       0.0019
      7  CD1       10.9130    9.2120   13.7400 C.3    15  LEU15       0.0001
      8  CD2       12.0940    7.9660   11.9090 C.3    15  LEU15       0.0001
      9  N         15.2280   12.6220   12.1870 N.am   16  GLY16      -0.1942
     10  CA        15.5180   14.0120   12.0920 C.3    16  GLY16       0.2014
     11  C         16.3930   14.4110   13.2770 C.2    16  GLY16       0.2639
     12  O         16.6220   13.6900   14.2330 O.2    16  GLY16      -0.2714
     13  N         16.9310   15.6040   13.1760 N.am   17  ARG17      -0.1963
     14  CA        17.8610   16.2160   14.0600 C.3    17  ARG17       0.1729
     15  C         17.6290   17.7240   14.1490 C.2    17  ARG17       0.2617
     16  O         17.0390   18.2750   13.2330 O.2    17  ARG17      -0.2715
     17  CB        19.2710   16.0720   13.4440 C.3    17  ARG17       0.0348
     18  CG        20.0480   14.8830   13.9610 C.3    17  ARG17       0.0492
     19  CD        21.4990   15.0080   13.5020 C.3    17  ARG17       0.2205
     20  NE        22.3390   14.1450   14.3220 N.pl3  17  ARG17      -0.0865
     21  CZ        22.6940   12.9000   14.0510 C.cat  17  ARG17       0.5346
     22  NH1       22.2790   12.3780   12.9150 N.pl3  17  ARG17       0.1354
     23  NH2       23.4510   12.1480   14.8370 N.pl3  17  ARG17       0.1354
     24  N         18.1770   18.3530   15.1580 N.am   18  GLY18      -0.1940
     25  CA        18.1010   19.7990   15.3390 C.3    18  GLY18       0.2014
     26  C         19.4610   20.1410   15.9500 C.2    18  GLY18       0.2639
     27  O         20.2580   19.2090   16.1080 O.2    18  GLY18      -0.2714
     28  N         19.7180   21.3900   16.2780 N.am   19  VAL19      -0.1963
     29  CA        21.0180   21.7560   16.8250 C.3    19  VAL19       0.1727
     30  C         21.4540   20.9220   18.0140 C.2    19  VAL19       0.2617
     31  O         22.6300   20.5210   18.0730 O.2    19  VAL19      -0.2715
     32  CB        21.0070   23.2540   17.1730 C.3    19  VAL19       0.0290
     33  CG1       20.4480   24.0330   15.9800 C.3    19  VAL19       0.0023
     34  CG2       20.1810   23.5550   18.4090 C.3    19  VAL19       0.0023
     35  N         20.5360   20.6680   18.9440 N.am   20  SER20      -0.1936
     36  CA        20.9040   19.8890   20.1240 C.3    20  SER20       0.2055
     37  C         20.0060   18.6830   20.3450 C.2    20  SER20       0.2643
     38  O         19.9160   18.2130   21.4820 O.2    20  SER20      -0.2714
     39  CB        20.9290   20.8150   21.3490 C.3    20  SER20       0.2130
     40  OG        19.7350   21.5830   21.4200 O.3    20  SER20      -0.2179
     41  N         19.3730   18.1990   19.2760 N.am   21  SER21      -0.1949
     42  CA        18.5250   17.0270   19.3460 C.3    21  SER21       0.1924
     43  C         18.6220   16.0690   18.1590 C.2    21  SER21       0.2314
     44  O         19.0120   16.3220   17.0240 O.2    21  SER21      -0.2863
     45  CB        17.0540   17.4080   19.4640 C.3    21  SER21       0.2116
     46  OG        16.3820   17.6540   18.2480 O.3    21  SER21      -0.2180
     47  N         15.9030   12.8510   16.8020 N.3    23  VAL23      -0.1245
     48  CA        14.5800   12.2690   16.9570 C.3    23  VAL23       0.1561
     49  C         14.6610   10.8510   16.3800 C.2    23  VAL23       0.2260
     50  O         15.1340   10.7340   15.2660 O.2    23  VAL23      -0.2867
     51  CB        13.4330   12.9820   16.2310 C.3    23  VAL23       0.0252
     52  CG1       12.1320   12.1710   16.3290 C.3    23  VAL23       0.0019
     53  CG2       13.2300   14.3610   16.8270 C.3    23  VAL23       0.0019
     54  N          7.8840    8.1310   18.4530 N.3    36  ALA36      -0.1245
     55  CA         9.0670    8.9010   18.0000 C.3    36  ALA36       0.1562
     56  C          9.5800    9.5410   19.2830 C.2    36  ALA36       0.2260
     57  O          8.7540    9.9810   20.0810 O.2    36  ALA36      -0.2867
     58  CB         8.6840    9.8600   16.8920 C.3    36  ALA36       0.0290
     59  N         12.1010   12.3930   20.9590 N.3    38  LYS38      -0.1245
     60  CA        13.0520   13.4870   20.6720 C.3    38  LYS38       0.1561
     61  C         14.0130   13.5550   21.8640 C.2    38  LYS38       0.2260
     62  O         13.6770   13.7430   23.0350 O.2    38  LYS38      -0.2867
     63  CB        12.3950   14.7870   20.3080 C.3    38  LYS38       0.0271
     64  CG        13.1330   16.1040   20.5430 C.3    38  LYS38       0.0035
     65  CD        12.1120   17.2130   20.2520 C.3    38  LYS38       0.0206
     66  CE        12.7830   18.5720   20.4080 C.3    38  LYS38       0.1093
     67  NZ        11.9680   19.6650   19.7630 N.3    38  LYS38      -0.1314
     68  N          0.7310   17.4310   17.5900 N.3    77  ILE77      -0.1245
     69  CA         1.3670   16.2220   18.1130 C.3    77  ILE77       0.1561
     70  C          1.0250   15.9560   19.5860 C.2    77  ILE77       0.2260
     71  O          0.7490   16.8650   20.3560 O.2    77  ILE77      -0.2867
     72  CB         2.8660   16.3640   17.8660 C.3    77  ILE77       0.0252
     73  CG1        3.4380   14.9490   17.7550 C.3    77  ILE77       0.0019
     74  CG2        3.4470   17.3950   18.8340 C.3    77  ILE77       0.0019
     75  CD1        2.7120   14.1460   16.6390 C.3    77  ILE77       0.0001
     76  N          6.7670   10.6730   21.4900 N.3    93  PHE93      -0.1227
     77  CA         5.5620   11.2040   20.8150 C.3    93  PHE93       0.1736
     78  C          4.9130   10.1540   19.9290 C.2    93  PHE93       0.2595
     79  O          5.5900    9.1600   19.6730 O.2    93  PHE93      -0.2718
     80  CB         5.9000   12.3880   19.9040 C.3    93  PHE93       0.0547
     81  CG         6.4710   13.6720   20.4210 C.ar   93  PHE93      -0.0202
     82  CD1        7.8300   13.8810   20.4880 C.ar   93  PHE93      -0.0042
     83  CD2        5.6760   14.7390   20.7800 C.ar   93  PHE93      -0.0042
     84  CE1        8.3890   15.0830   20.9440 C.ar   93  PHE93      -0.0003
     85  CE2        6.1670   15.9190   21.2140 C.ar   93  PHE93      -0.0003
     86  CZ         7.5470   16.1140   21.3010 C.ar   93  PHE93      -0.0000
     87  N          3.7010   10.4350   19.4460 N.am   94  ASP94      -0.1960
     88  CA         3.1500    9.5540   18.4160 C.3    94  ASP94       0.1840
     89  C          4.0910    9.6780   17.1840 C.2    94  ASP94       0.2622
     90  O          4.7280   10.6940   16.9290 O.2    94  ASP94      -0.2715
     91  CB         1.7410    9.9650   18.0220 C.3    94  ASP94       0.1450
     92  CG         0.6730    9.5900   19.0380 C.2    94  ASP94       0.3671
     93  OD1        0.7600    8.5310   19.7110 O.co2  94  ASP94      -0.2456
     94  OD2       -0.2810   10.3700   19.1150 O.co2  94  ASP94      -0.2456
     95  N          4.2380    8.5590   16.4800 N.am   95  LEU95      -0.1963
     96  CA         5.0670    8.3750   15.3000 C.3    95  LEU95       0.1728
     97  C          4.3200    8.8960   14.0670 C.2    95  LEU95       0.2616
     98  O          3.2010    8.4670   13.7920 O.2    95  LEU95      -0.2715
     99  CB         5.5730    6.9370   15.1550 C.3    95  LEU95       0.0311
    100  CG         6.4560    6.5580   13.9480 C.3    95  LEU95       0.0022
    101  CD1        7.8630    7.1280   13.9300 C.3    95  LEU95       0.0001
    102  CD2        6.5810    5.0460   13.7340 C.3    95  LEU95       0.0001
    103  N          4.8880    9.8990   13.3810 N.am   96  MET96      -0.1977
    104  CA         4.2050   10.4210   12.1490 C.3    96  MET96       0.1605
    105  C          4.8480    9.7040   10.9880 C.2    96  MET96       0.2287
    106  O          6.0520    9.9040   10.7600 O.2    96  MET96      -0.2864
    107  CB         4.2930   11.9360   12.0810 C.3    96  MET96       0.0413
    108  CG         3.4390   12.5780   13.2290 C.3    96  MET96       0.0598
    109  SD         1.7160   12.3790   12.8910 S.3    96  MET96      -0.1393
    110  CE         1.1550   11.2460   14.1770 C.3    96  MET96       0.0692
    111  N          6.3910   11.6440    7.2780 N.3    99  GLY99      -0.1210
    112  CA         7.3080   12.6970    7.5290 C.3    99  GLY99       0.1956
    113  C          6.8040   14.1250    7.5470 C.2    99  GLY99       0.2611
    114  O          5.7190   14.4260    7.9630 O.2    99  GLY99      -0.2717
    115  N          7.6470   15.0330    7.0650 N.am  100  GLU100     -0.1979
    116  CA         7.3990   16.4350    6.9890 C.3   100  GLU100      0.1602
    117  C          6.6220   16.9210    5.7660 C.2   100  GLU100      0.2287
    118  O          6.7480   16.4960    4.6070 O.2   100  GLU100     -0.2864
    119  CB         8.7580   17.1580    6.9870 C.3   100  GLU100      0.0415
    120  CG         9.7120   16.7580    8.1170 C.3   100  GLU100      0.1163
    121  CD        10.9980   17.5250    8.0150 C.2   100  GLU100      0.3649
    122  OE1       10.9000   18.4860    7.2150 O.co2 100  GLU100     -0.2457
    123  OE2       12.0430   17.2870    8.6310 O.co2 100  GLU100     -0.2457
    124  N          7.5880   29.1770   15.4030 N.3   139  ASP139     -0.1239
    125  CA         8.4330   28.4350   14.5060 C.3   139  ASP139      0.1674
    126  C          7.6060   27.7420   13.4240 C.2   139  ASP139      0.2266
    127  O          7.9210   26.6210   12.9900 O.2   139  ASP139     -0.2867
    128  CB         9.3120   27.4320   15.2530 C.3   139  ASP139      0.1410
    129  CG        10.5860   27.2210   14.4420 C.2   139  ASP139      0.3668
    130  OD1       10.8200   27.9150   13.4140 O.co2 139  ASP139     -0.2456
    131  OD2       11.4160   26.3980   14.7790 O.co2 139  ASP139     -0.2456
    132  N          6.6220   26.4730   10.1920 N.3   141  LYS141     -0.1245
    133  CA         7.2620   26.2820    8.9010 C.3   141  LYS141      0.1561
    134  C          7.0410   24.8170    8.4800 C.2   141  LYS141      0.2260
    135  O          6.6330   24.0360    9.3090 O.2   141  LYS141     -0.2867
    136  CB         8.7240   26.7200    8.8690 C.3   141  LYS141      0.0271
    137  CG         9.4610   25.6820    9.7300 C.3   141  LYS141      0.0035
    138  CD        10.9190   26.1590    9.7740 C.3   141  LYS141      0.0206
    139  CE        11.5730   25.6070   11.0290 C.3   141  LYS141      0.1093
    140  NZ        12.7110   26.5630   11.3890 N.3   141  LYS141     -0.1314
    141  N          8.8830   22.1310    7.8110 N.3   143  GLU143     -0.1231
    142  CA         9.6020   21.1370    8.5680 C.3   143  GLU143      0.1699
    143  C          8.9970   20.7700    9.9390 C.2   143  GLU143      0.2592
    144  O          9.3990   19.7230   10.4720 O.2   143  GLU143     -0.2718
    145  CB        10.9840   21.7480    8.8220 C.3   143  GLU143      0.0402
    146  CG        11.5620   21.9810    7.4020 C.3   143  GLU143      0.1161
    147  CD        11.5530   23.3960    6.8570 C.2   143  GLU143      0.3649
    148  OE1       10.6390   24.2220    6.8730 O.co2 143  GLU143     -0.2457
    149  OE2       12.6490   23.6910    6.3110 O.co2 143  GLU143     -0.2457
    150  N          8.1450   21.6150   10.5070 N.am  144  ASN144     -0.1974
    151  CA         7.5380   21.4670   11.7940 C.3   144  ASN144      0.1688
    152  C          6.0660   21.1070   11.6960 C.2   144  ASN144      0.2292
    153  O          5.4040   21.0480   12.7160 O.2   144  ASN144     -0.2864
    154  CB         7.6610   22.7630   12.6210 C.3   144  ASN144      0.1181
    155  CG         9.0970   23.0260   13.0090 C.2   144  ASN144      0.2629
    156  OD1       10.0210   22.1830   12.9590 O.2   144  ASN144     -0.2716
    157  ND2        9.2100   24.2450   13.5060 N.am  144  ASN144     -0.0877
    158  N          3.9410   17.8720   10.3630 N.3   146  LEU146     -0.1245
    159  CA         4.1650   16.5070    9.9120 C.3   146  LEU146      0.1561
    160  C          2.9290   15.8710    9.3240 C.2   146  LEU146      0.2260
    161  O          1.8160   16.4400    9.3130 O.2   146  LEU146     -0.2867
    162  CB         4.6740   15.6620   11.0980 C.3   146  LEU146      0.0270
    163  CG         5.9040   16.2140   11.8320 C.3   146  LEU146      0.0019
    164  CD1        6.5690   15.1610   12.6980 C.3   146  LEU146      0.0001
    165  CD2        6.9770   16.8060   10.9150 C.3   146  LEU146      0.0001
    166  N          3.8840   20.3130   15.0440 N.3   156  THR156     -0.1203
    167  CA         4.8770   19.8180   16.0030 C.3   156  THR156      0.1994
    168  C          5.9070   20.8800   16.3340 C.2   156  THR156      0.2617
    169  O          5.7460   22.0350   15.9100 O.2   156  THR156     -0.2717
    170  CB         5.4580   18.5190   15.3840 C.3   156  THR156      0.1784
    171  OG1        6.2450   17.7760   16.3590 O.3   156  THR156     -0.2211
    172  CG2        6.4990   18.8440   14.3310 C.3   156  THR156      0.0376
    173  N          6.9770   20.5540   17.0280 N.am  157  ASP157     -0.1973
    174  CA         8.0480   21.4760   17.3960 C.3   157  ASP157      0.1709
    175  C          7.6560   22.7820   18.1230 C.2   157  ASP157      0.2293
    176  O          7.8020   23.8950   17.5890 O.2   157  ASP157     -0.2864
    177  CB         8.9460   21.8330   16.2260 C.3   157  ASP157      0.1436
    178  CG        10.2860   22.3940   16.6360 C.2   157  ASP157      0.3671
    179  OD1       10.6900   22.5130   17.8100 O.co2 157  ASP157     -0.2456
    180  OD2       11.0640   22.7710   15.6950 O.co2 157  ASP157     -0.2456
    181  N          9.3230   24.1260   20.6060 N.3   159  GLY159     -0.1210
    182  CA        10.5520   24.4750   21.2590 C.3   159  GLY159      0.1956
    183  C         10.7760   25.9850   21.3670 C.2   159  GLY159      0.2611
    184  O         11.6830   26.4270   22.0450 O.2   159  GLY159     -0.2717
    185  N         10.0280   26.8140   20.6250 N.am  160  PHE160     -0.1976
    186  CA        10.1560   28.2570   20.7620 C.3   160  PHE160      0.1639
    187  C          8.8190   28.8720   21.2000 C.2   160  PHE160      0.2290
    188  O          8.7290   30.0970   21.1230 O.2   160  PHE160     -0.2864
    189  CB        10.5640   28.9930   19.5020 C.3   160  PHE160      0.0560
    190  CG        11.8550   28.7090   18.8080 C.ar  160  PHE160     -0.0200
    191  CD1       12.9340   28.1200   19.4230 C.ar  160  PHE160     -0.0042
    192  CD2       12.0440   29.1060   17.4770 C.ar  160  PHE160     -0.0042
    193  CE1       14.1520   27.8600   18.7930 C.ar  160  PHE160     -0.0003
    194  CE2       13.2410   28.8650   16.8210 C.ar  160  PHE160     -0.0003
    195  CZ        14.3030   28.2410   17.4690 C.ar  160  PHE160     -0.0000
@<TRIPOS>BOND
     1   118   117    2
     2   117   116    1
     3   149   147   ar
     4   147   148   ar
     5   147   146    1
     6   119   116    1
     7   119   120    1
     8   116   115    1
     9   115   113   am
    10   122   121   ar
    11   111   112    1
    12   146   145    1
    13   112   113    1
    14   113   114    2
    15   141   142    1
    16   121   120    1
    17   121   123   ar
    18   134   133    1
    19   134   135    2
    20   142   145    1
    21   142   143    1
    22   136   133    1
    23   136   137    1
    24   133   132    1
    25   161   160    2
    26   160   159    1
    27   137   138    1
    28   138   139    1
    29   159   158    1
    30   159   162    1
    31   143   144    2
    32   143   150   am
    33   150   151    1
    34     4     3    2
    35   106   105    2
    36   165   163    1
    37   105   104    1
    38   139   140    1
    39   162   163    1
    40     3     2    1
    41     3     9   am
    42   152   151    1
    43   152   153    2
    44     2     1    1
    45     2     5    1
    46   151   154    1
    47   163   164    1
    48     8     6    1
    49   107   104    1
    50   107   108    1
    51    10     9    1
    52    10    11    1
    53   104   103    1
    54     5     6    1
    55   154   155    1
    56   109   108    1
    57   109   110    1
    58    22    21    1
    59   156   155    2
    60   127   126    2
    61     6     7    1
    62   155   157   am
    63    13    11   am
    64    13    14    1
    65    16    15    2
    66    11    12    2
    67   103    97   am
    68   130   129   ar
    69   126   125    1
    70    17    18    1
    71    17    14    1
    72    19    18    1
    73    19    20    1
    74   102   100    1
    75    98    97    2
    76   101   100    1
    77   100    99    1
    78    21    20    2
    79    21    23    1
    80    14    15    1
    81    97    96    1
    82    15    24   am
    83   172   170    1
    84   129   131   ar
    85   129   128    1
    86   125   128    1
    87   125   124    1
    88   166   167    1
    89    99    96    1
    90    24    25    1
    91    50    49    2
    92    96    95    1
    93    25    26    1
    94   170   167    1
    95   170   171    1
    96   180   178   ar
    97   169   168    2
    98    26    27    2
    99    26    28   am
   100    33    32    1
   101   167   168    1
   102   177   178    1
   103   177   174    1
   104    51    52    1
   105    51    53    1
   106    51    48    1
   107    28    29    1
   108   168   173   am
   109    49    48    1
   110    95    89   am
   111   178   179   ar
   112    75    73    1
   113    47    48    1
   114   194   195   ar
   115   194   192   ar
   116    29    32    1
   117    29    30    1
   118    58    55    1
   119    90    89    2
   120    44    43    2
   121   173   174    1
   122    32    34    1
   123    89    88    1
   124   174   175    1
   125   195   193   ar
   126   192   190   ar
   127   176   175    2
   128    68    69    1
   129    73    72    1
   130    72    69    1
   131    72    74    1
   132    55    54    1
   133    55    56    1
   134    30    31    2
   135    30    35   am
   136    91    88    1
   137    91    92    1
   138    69    70    1
   139    43    42    1
   140    46    45    1
   141    88    87    1
   142   193   191   ar
   143   190   191   ar
   144   190   189    1
   145    35    36    1
   146    92    94   ar
   147    92    93   ar
   148    41    42    1
   149    41    37   am
   150    56    57    2
   151    42    45    1
   152    87    78   am
   153   189   186    1
   154    70    71    2
   155    79    78    2
   156    67    66    1
   157    80    81    1
   158    80    77    1
   159    78    77    1
   160    36    37    1
   161    36    39    1
   162    65    66    1
   163    65    64    1
   164    63    64    1
   165    63    60    1
   166    37    38    2
   167    81    82   ar
   168    81    83   ar
   169    82    84   ar
   170   181   182    1
   171   185   186    1
   172   185   183   am
   173    60    59    1
   174    60    61    1
   175   186   187    1
   176    83    85   ar
   177    77    76    1
   178    84    86   ar
   179   188   187    2
   180    85    86   ar
   181   182   183    1
   182    39    40    1
   183   183   184    2
   184    61    62    2
