@<TRIPOS>MOLECULE
tmp/1qlbD01.pdb
 106 98 0 0 0
SMALL
GASTEIGER

@<TRIPOS>ATOM
      1  N          0.5930    4.7340   76.3480 N.3    47  ALA47      -0.1231
      2  CA         0.8820    4.8560   77.7840 C.3    47  ALA47       0.1694
      3  C         -0.3680    5.1250   78.6220 C.2    47  ALA47       0.2592
      4  O         -1.0390    6.1340   78.4310 O.2    47  ALA47      -0.2718
      5  CB         1.9150    5.9580   78.0270 C.3    47  ALA47       0.0304
      6  N         -0.6760    4.2190   79.5470 N.am   48  GLN48      -0.1966
      7  CA        -1.8430    4.3800   80.4110 C.3    48  GLN48       0.1733
      8  C         -1.5020    4.4490   81.9030 C.2    48  GLN48       0.2617
      9  O         -2.3390    4.8340   82.7210 O.2    48  GLN48      -0.2715
     10  CB        -2.8470    3.2530   80.1570 C.3    48  GLN48       0.0408
     11  CG        -3.5770    3.3810   78.8310 C.3    48  GLN48       0.0908
     12  CD        -4.3840    2.1430   78.4840 C.2    48  GLN48       0.2608
     13  OE1       -5.2280    2.1710   77.5890 O.2    48  GLN48      -0.2717
     14  NE2       -4.1170    1.0460   79.1770 N.am   48  GLN48      -0.0878
     15  N         -0.2710    4.0870   82.2520 N.am   49  GLY49      -0.1940
     16  CA         0.1380    4.1320   83.6410 C.3    49  GLY49       0.2014
     17  C          0.3060    5.5580   84.1330 C.2    49  GLY49       0.2639
     18  O         -0.2710    5.9450   85.1550 O.2    49  GLY49      -0.2714
     19  N          1.0990    6.3460   83.4120 N.am   50  GLY50      -0.1954
     20  CA         1.3100    7.7270   83.8080 C.3    50  GLY50       0.1869
     21  C          2.7450    8.1960   83.6840 C.2    50  GLY50       0.2309
     22  O          3.6170    7.4580   83.2190 O.2    50  GLY50      -0.2863
     23  N          2.2570    4.2110   91.3300 N.3   141  PHE141     -0.1241
     24  CA         2.7080    3.5040   90.1380 C.3   141  PHE141      0.1605
     25  C          4.2330    3.4740   90.1170 C.2   141  PHE141      0.2264
     26  O          4.8830    4.4650   90.4410 O.2   141  PHE141     -0.2867
     27  CB         2.1850    4.2260   88.8900 C.3   141  PHE141      0.0534
     28  CG         2.3970    3.4660   87.6170 C.ar  141  PHE141     -0.0203
     29  CD1        1.5760    2.3940   87.2900 C.ar  141  PHE141     -0.0042
     30  CD2        3.4370    3.8060   86.7550 C.ar  141  PHE141     -0.0042
     31  CE1        1.7880    1.6730   86.1250 C.ar  141  PHE141     -0.0003
     32  CE2        3.6580    3.0910   85.5890 C.ar  141  PHE141     -0.0003
     33  CZ         2.8340    2.0240   85.2730 C.ar  141  PHE141     -0.0000
     34  N          7.2550   -6.8740   81.1500 N.3   257  HIS257     -0.1241
     35  CA         6.0870   -6.4950   81.9300 C.3   257  HIS257      0.1621
     36  C          5.5000   -7.8310   82.3710 C.2   257  HIS257      0.2264
     37  O          5.4070   -8.7720   81.5760 O.2   257  HIS257     -0.2867
     38  CB         5.0810   -5.7300   81.0690 C.3   257  HIS257      0.0745
     39  CG         3.9290   -5.1720   81.8460 C.ar  257  HIS257      0.0817
     40  ND1        3.7900   -3.8250   82.1060 N.ar  257  HIS257     -0.2268
     41  CD2        2.8780   -5.7820   82.4420 C.ar  257  HIS257      0.1154
     42  CE1        2.7010   -3.6310   82.8290 C.ar  257  HIS257      0.1986
     43  NE2        2.1290   -4.8020   83.0460 N.ar  257  HIS257     -0.2212
     44  N         -1.8010   -4.7020   76.7310 N.3   267  LEU267     -0.1245
     45  CA        -1.6490   -4.3970   78.1340 C.3   267  LEU267      0.1561
     46  C         -2.9420   -4.3020   78.9270 C.2   267  LEU267      0.2260
     47  O         -3.8730   -3.5860   78.5610 O.2   267  LEU267     -0.2867
     48  CB        -0.8370   -3.1130   78.2930 C.3   267  LEU267      0.0270
     49  CG         0.1350   -3.1120   79.4690 C.3   267  LEU267      0.0019
     50  CD1        0.9780   -4.3760   79.4370 C.3   267  LEU267      0.0001
     51  CD2        1.0110   -1.8780   79.4030 C.3   267  LEU267      0.0001
     52  N         -3.9530   -3.1110   82.3150 N.3   269  THR269     -0.1218
     53  CA        -3.4640   -2.3390   83.4470 C.3   269  THR269      0.1862
     54  C         -4.1370   -2.8030   84.7390 C.2   269  THR269      0.2287
     55  O         -4.2780   -2.0300   85.6910 O.2   269  THR269     -0.2866
     56  CB        -3.7080   -0.8280   83.2300 C.3   269  THR269      0.1770
     57  OG1       -2.9750   -0.0810   84.2070 O.3   269  THR269     -0.2211
     58  CG2       -5.1920   -0.5020   83.3390 C.3   269  THR269      0.0375
     59  N         -3.5440   -2.1830   88.8430 N.3   272  CYS272     -0.1235
     60  CA        -2.8640   -0.8930   88.9250 C.3   272  CYS272      0.1677
     61  C         -3.7250    0.1330   89.6540 C.2   272  CYS272      0.2270
     62  O         -3.4790    0.4440   90.8200 O.2   272  CYS272     -0.2867
     63  CB        -2.5300   -0.3810   87.5220 C.3   272  CYS272      0.0956
     64  SG        -1.4540   -1.4720   86.5640 S.3   272  CYS272     -0.0801
     65  N          7.5630   -5.3730   90.3290 N.3   301  ARG301     -0.1245
     66  CA         7.2050   -6.0050   89.0600 C.3   301  ARG301      0.1563
     67  C          8.3550   -6.8440   88.5360 C.2   301  ARG301      0.2260
     68  O          8.1490   -7.8700   87.8870 O.2   301  ARG301     -0.2867
     69  CB         6.7920   -4.9570   88.0210 C.3   301  ARG301      0.0307
     70  CG         5.3590   -4.4660   88.2250 C.3   301  ARG301      0.0489
     71  CD         4.8320   -3.6890   87.0330 C.3   301  ARG301      0.2205
     72  NE         3.4240   -3.3330   87.2100 N.pl3 301  ARG301     -0.0865
     73  CZ         2.7220   -2.5980   86.3500 C.cat 301  ARG301      0.5346
     74  NH1        3.2960   -2.1360   85.2480 N.pl3 301  ARG301      0.1354
     75  NH2        1.4490   -2.3200   86.5910 N.pl3 301  ARG301      0.1354
     76  N          8.7880   -5.2810   77.0390 N.3   369  HIS369     -0.1241
     77  CA         8.0360   -4.0540   77.2070 C.3   369  HIS369      0.1621
     78  C          8.7820   -2.7610   76.9010 C.2   369  HIS369      0.2264
     79  O          8.2720   -1.9070   76.1790 O.2   369  HIS369     -0.2867
     80  CB         7.5100   -4.0020   78.6400 C.3   369  HIS369      0.0745
     81  CG         6.5960   -2.8510   78.9060 C.ar  369  HIS369      0.0817
     82  ND1        5.4470   -2.6330   78.1760 N.ar  369  HIS369     -0.2268
     83  CD2        6.6470   -1.8660   79.8340 C.ar  369  HIS369      0.1154
     84  CE1        4.8280   -1.5640   78.6440 C.ar  369  HIS369      0.1986
     85  NE2        5.5350   -1.0810   79.6490 N.ar  369  HIS369     -0.2212
     86  N         14.4940    0.3890   84.1420 N.3   404  ARG404     -0.1245
     87  CA        13.7320    1.6180   84.0690 C.3   404  ARG404      0.1563
     88  C         12.6890    1.6420   85.1830 C.2   404  ARG404      0.2260
     89  O         12.1130    0.6150   85.5410 O.2   404  ARG404     -0.2867
     90  CB        13.0490    1.7030   82.7020 C.3   404  ARG404      0.0307
     91  CG        12.1630    2.9090   82.5190 C.3   404  ARG404      0.0489
     92  CD        10.8880    2.5340   81.7700 C.3   404  ARG404      0.2205
     93  NE        10.1890    1.4210   82.4140 N.pl3 404  ARG404     -0.0865
     94  CZ         8.8730    1.2370   82.3560 C.cat 404  ARG404      0.5346
     95  NH1        8.1110    2.0980   81.6890 N.pl3 404  ARG404      0.1354
     96  NH2        8.3150    0.1900   82.9540 N.pl3 404  ARG404      0.1354
     97  N          7.0000    4.6070   84.8420 N.3   407  GLY407     -0.1225
     98  CA         6.5360    5.9780   84.7350 C.3   407  GLY407      0.1811
     99  C          7.6350    6.9420   84.3320 C.2   407  GLY407      0.2280
    100  O          7.3640    8.0970   84.0150 O.2   407  GLY407     -0.2866
    101  N          9.8300    6.4310   81.7090 N.3   409  SER409     -0.1217
    102  CA        10.0900    6.4270   80.2730 C.3   409  SER409      0.1889
    103  C          9.2810    7.4030   79.4320 C.2   409  SER409      0.2288
    104  O          9.8050    7.9740   78.4680 O.2   409  SER409     -0.2866
    105  CB         9.9460    5.0040   79.7160 C.3   409  SER409      0.2089
    106  OG         8.9020    4.2880   80.3500 O.3   409  SER409     -0.2183
@<TRIPOS>BOND
     1    79    78    2
     2     1     2    1
     3    44    45    1
     4    78    77    1
     5    76    77    1
     6    77    80    1
     7    13    12    2
     8     2     5    1
     9     2     3    1
    10    45    48    1
    11    45    46    1
    12    82    84   ar
    13    82    81   ar
    14    48    49    1
    15     4     3    2
    16   104   103    2
    17    12    11    1
    18    12    14   am
    19    47    46    2
    20     3     6   am
    21    80    81    1
    22    84    85   ar
    23    11    10    1
    24    81    83   ar
    25    51    49    1
    26   103   102    1
    27    50    49    1
    28     6     7    1
    29    85    83   ar
    30   105   102    1
    31   105   106    1
    32    10     7    1
    33   102   101    1
    34     7     8    1
    35    38    39    1
    36    38    35    1
    37    34    35    1
    38    37    36    2
    39    95    94    1
    40    92    93    1
    41    92    91    1
    42    39    40   ar
    43    39    41   ar
    44     8    15   am
    45     8     9    2
    46    35    36    1
    47    40    42   ar
    48    15    16    1
    49    52    53    1
    50    94    93    2
    51    94    96    1
    52    41    43   ar
    53    91    90    1
    54    90    87    1
    55    42    43   ar
    56    22    21    2
    57    56    58    1
    58    56    53    1
    59    56    57    1
    60    19    20    1
    61    19    17   am
    62    53    54    1
    63    16    17    1
    64    21    20    1
    65   100    99    2
    66    87    86    1
    67    87    88    1
    68    17    18    2
    69    99    98    1
    70    98    97    1
    71    54    55    2
    72    88    89    2
    73    74    73    1
    74    33    32   ar
    75    33    31   ar
    76    32    30   ar
    77    31    29   ar
    78    73    75    1
    79    73    72    2
    80    64    63    1
    81    30    28   ar
    82    71    72    1
    83    71    70    1
    84    29    28   ar
    85    63    60    1
    86    28    27    1
    87    68    67    2
    88    69    70    1
    89    69    66    1
    90    67    66    1
    91    59    60    1
    92    27    24    1
    93    60    61    1
    94    66    65    1
    95    61    62    2
    96    25    24    1
    97    25    26    2
    98    24    23    1
