@<TRIPOS>MOLECULE
tmp/1qlnA00.pdb
 168 158 0 0 0
SMALL
GASTEIGER

@<TRIPOS>ATOM
      1  N         74.8430   26.3560    8.1160 N.3   106  THR106     -0.1218
      2  CA        73.8250   27.2070    8.6950 C.3   106  THR106      0.1862
      3  C         74.2510   28.6420    8.4190 C.2   106  THR106      0.2287
      4  O         73.4910   29.5690    8.6860 O.2   106  THR106     -0.2866
      5  CB        73.6520   27.0290   10.2430 C.3   106  THR106      0.1770
      6  OG1       74.8730   27.3650   10.8990 O.3   106  THR106     -0.2211
      7  CG2       73.2370   25.6090   10.6000 C.3   106  THR106      0.0375
      8  N         74.8850   31.8600    6.1380 N.3   108  ALA108     -0.1245
      9  CA        74.4360   32.3990    4.8580 C.3   108  ALA108      0.1562
     10  C         75.6220   32.8860    4.0400 C.2   108  ALA108      0.2260
     11  O         75.8170   32.4880    2.8910 O.2   108  ALA108     -0.2867
     12  CB        73.4580   33.5640    5.0870 C.3   108  ALA108      0.0290
     13  N         59.0220   34.9320    8.5920 N.3   330  ASP330     -0.1239
     14  CA        60.4530   34.7060    8.7820 C.3   330  ASP330      0.1674
     15  C         60.8350   33.2500    8.4910 C.2   330  ASP330      0.2266
     16  O         62.0120   32.9350    8.3510 O.2   330  ASP330     -0.2867
     17  CB        60.8940   35.0390   10.2290 C.3   330  ASP330      0.1410
     18  CG        60.6750   36.5140   10.6070 C.2   330  ASP330      0.3668
     19  OD1       61.1590   37.4020    9.8560 O.co2 330  ASP330     -0.2456
     20  OD2       60.0290   36.7770   11.6660 O.co2 330  ASP330     -0.2456
     21  N         70.7430   31.7740    1.2070 N.3   369  ALA369     -0.1245
     22  CA        70.2470   32.2410    2.4820 C.3   369  ALA369      0.1562
     23  C         69.0160   31.4020    2.8680 C.2   369  ALA369      0.2260
     24  O         68.8450   31.0170    4.0470 O.2   369  ALA369     -0.2867
     25  CB        69.8750   33.7230    2.3920 C.3   369  ALA369      0.0290
     26  N         68.9240   29.2080    6.3040 N.3   373  ARG373     -0.1245
     27  CA        67.9320   29.4910    7.3260 C.3   373  ARG373      0.1563
     28  C         67.1510   28.2340    7.6320 C.2   373  ARG373      0.2260
     29  O         66.7210   28.0260    8.7610 O.2   373  ARG373     -0.2867
     30  CB        67.0190   30.6250    6.8770 C.3   373  ARG373      0.0307
     31  CG        67.5840   31.9700    7.2950 C.3   373  ARG373      0.0489
     32  CD        67.3930   33.0570    6.2560 C.3   373  ARG373      0.2205
     33  NE        65.9910   33.2480    5.9010 N.pl3 373  ARG373     -0.0865
     34  CZ        65.0220   33.4980    6.7810 C.cat 373  ARG373      0.5346
     35  NH1       65.2980   33.5860    8.0800 N.pl3 373  ARG373      0.1354
     36  NH2       63.7690   33.6670    6.3630 N.pl3 373  ARG373      0.1354
     37  N         69.5390   25.6030    9.8080 N.3   376  SER376     -0.1217
     38  CA        69.5500   26.2140   11.1000 C.3   376  SER376      0.1889
     39  C         68.1930   25.9110   11.7460 C.2   376  SER376      0.2288
     40  O         68.1140   25.3410   12.8460 O.2   376  SER376     -0.2866
     41  CB        69.7570   27.7050   10.8920 C.3   376  SER376      0.2089
     42  OG        69.5980   28.4360   12.0800 O.3   376  SER376     -0.2183
     43  N         86.1100   40.4160   24.9630 N.3   402  ARG402     -0.1245
     44  CA        85.8140   41.6760   25.6530 C.3   402  ARG402      0.1563
     45  C         85.0370   41.4530   26.9350 C.2   402  ARG402      0.2260
     46  O         84.7430   42.4100   27.6540 O.2   402  ARG402     -0.2867
     47  CB        85.0010   42.6290   24.7830 C.3   402  ARG402      0.0307
     48  CG        85.7960   43.2360   23.6760 C.3   402  ARG402      0.0489
     49  CD        85.4440   42.5640   22.3770 C.3   402  ARG402      0.2205
     50  NE        84.2640   43.1790   21.7910 N.pl3 402  ARG402     -0.0865
     51  CZ        83.2270   42.4840   21.3780 C.cat 402  ARG402      0.5346
     52  NH1       83.2330   41.1620   21.4990 N.pl3 402  ARG402      0.1354
     53  NH2       82.2040   43.1110   20.8240 N.pl3 402  ARG402      0.1354
     54  N         81.8610   40.1350   27.0540 N.3   404  ARG404     -0.1245
     55  CA        80.4520   39.8080   26.7300 C.3   404  ARG404      0.1563
     56  C         80.2200   38.3200   26.9780 C.2   404  ARG404      0.2260
     57  O         81.0970   37.4970   26.6910 O.2   404  ARG404     -0.2867
     58  CB        80.1260   40.1020   25.2590 C.3   404  ARG404      0.0307
     59  CG        79.8790   41.5340   24.9690 C.3   404  ARG404      0.0489
     60  CD        78.8690   41.6870   23.8860 C.3   404  ARG404      0.2205
     61  NE        78.0660   42.8830   24.0900 N.pl3 404  ARG404     -0.0865
     62  CZ        77.3490   43.4650   23.1380 C.cat 404  ARG404      0.5346
     63  NH1       77.3560   42.9510   21.9030 N.pl3 404  ARG404      0.1354
     64  NH2       76.5960   44.5230   23.4140 N.pl3 404  ARG404      0.1354
     65  N         78.2960   34.5630   26.5160 N.3   406  TYR406     -0.1241
     66  CA        77.6040   33.7540   25.5100 C.3   406  TYR406      0.1605
     67  C         77.2500   32.3340   25.9750 C.2   406  TYR406      0.2264
     68  O         78.0880   31.6460   26.5460 O.2   406  TYR406     -0.2867
     69  CB        78.4590   33.6140   24.2160 C.3   406  TYR406      0.0534
     70  CG        78.7590   34.8920   23.4570 C.ar  406  TYR406     -0.0201
     71  CD1       79.6670   35.8180   23.9450 C.ar  406  TYR406     -0.0009
     72  CD2       78.1190   35.1840   22.2510 C.ar  406  TYR406     -0.0009
     73  CE1       79.9380   37.0080   23.2680 C.ar  406  TYR406      0.0417
     74  CE2       78.3790   36.3780   21.5510 C.ar  406  TYR406      0.0417
     75  CZ        79.2950   37.2910   22.0720 C.ar  406  TYR406      0.1957
     76  OH        79.5610   38.4890   21.4050 O.3   406  TYR406     -0.2866
     77  N         69.8170   32.7370   23.4310 N.3   414  GLN414     -0.1231
     78  CA        70.2750   33.9640   22.8130 C.3   414  GLN414      0.1698
     79  C         69.9020   34.0130   21.3350 C.2   414  GLN414      0.2593
     80  O         70.1990   34.9930   20.6590 O.2   414  GLN414     -0.2718
     81  CB        71.7990   34.0900   22.9930 C.3   414  GLN414      0.0381
     82  CG        72.2350   34.0920   24.4420 C.3   414  GLN414      0.0905
     83  CD        73.6990   34.3970   24.6000 C.2   414  GLN414      0.2608
     84  OE1       74.0700   35.2380   25.4160 O.2   414  GLN414     -0.2717
     85  NE2       74.5520   33.7140   23.8140 N.am  414  GLN414     -0.0878
     86  N         69.2240   32.9600   20.8830 N.am  415  GLY415     -0.1942
     87  CA        68.8150   32.8060   19.5070 C.3   415  GLY415      0.2014
     88  C         67.7390   33.7100   18.9630 C.2   415  GLY415      0.2639
     89  O         67.3740   34.6960   19.6040 O.2   415  GLY415     -0.2714
     90  N         67.2310   33.3650   17.7750 N.am  416  ASN416     -0.1958
     91  CA        66.1980   34.1490   17.0980 C.3   416  ASN416      0.1819
     92  C         64.8290   33.9020   17.6880 C.2   416  ASN416      0.2621
     93  O         64.6960   33.1060   18.6090 O.2   416  ASN416     -0.2715
     94  CB        66.1950   33.8100   15.6170 C.3   416  ASN416      0.1195
     95  CG        65.7470   32.3900   15.3330 C.2   416  ASN416      0.2630
     96  OD1       65.8300   31.9500   14.2140 O.2   416  ASN416     -0.2716
     97  ND2       65.2640   31.6800   16.3320 N.am  416  ASN416     -0.0877
     98  N         63.8020   34.5450   17.1390 N.am  417  ASP417     -0.1971
     99  CA        62.4430   34.4100   17.6660 C.3   417  ASP417      0.1709
    100  C         61.9210   32.9760   17.9000 C.2   417  ASP417      0.2293
    101  O         61.4430   32.6390   18.9760 O.2   417  ASP417     -0.2864
    102  CB        61.4780   35.1450   16.7610 C.3   417  ASP417      0.1436
    103  CG        60.0810   35.1930   17.3260 C.2   417  ASP417      0.3671
    104  OD1       59.8100   36.0390   18.2300 O.co2 417  ASP417     -0.2456
    105  OD2       59.2660   34.3820   16.8510 O.co2 417  ASP417     -0.2456
    106  N         63.8350   31.3260   20.8770 N.3   420  LYS420     -0.1245
    107  CA        63.4660   31.8550   22.1560 C.3   420  LYS420      0.1561
    108  C         62.0580   31.3790   22.5050 C.2   420  LYS420      0.2260
    109  O         61.8000   30.9960   23.6380 O.2   420  LYS420     -0.2867
    110  CB        63.5690   33.3790   22.1240 C.3   420  LYS420      0.0271
    111  CG        65.0100   33.8000   21.9830 C.3   420  LYS420      0.0035
    112  CD        65.2620   35.2710   22.1920 C.3   420  LYS420      0.0206
    113  CE        64.7000   36.1250   21.1040 C.3   420  LYS420      0.1093
    114  NZ        65.0670   37.5400   21.3420 N.3   420  LYS420     -0.1314
    115  N         80.3440   50.9700   16.0300 N.3   618  TYR618     -0.1241
    116  CA        81.1510   49.9440   15.3690 C.3   618  TYR618      0.1605
    117  C         82.2700   50.6150   14.5680 C.2   618  TYR618      0.2264
    118  O         83.0180   49.9600   13.8400 O.2   618  TYR618     -0.2867
    119  CB        80.2810   49.0920   14.4430 C.3   618  TYR618      0.0534
    120  CG        79.2180   48.2890   15.1670 C.ar  618  TYR618     -0.0201
    121  CD1       79.3950   47.8870   16.4930 C.ar  618  TYR618     -0.0009
    122  CD2       78.0630   47.8830   14.5080 C.ar  618  TYR618     -0.0009
    123  CE1       78.4510   47.1010   17.1340 C.ar  618  TYR618      0.0417
    124  CE2       77.1190   47.0950   15.1360 C.ar  618  TYR618      0.0417
    125  CZ        77.3170   46.7040   16.4460 C.ar  618  TYR618      0.1957
    126  OH        76.3880   45.8870   17.0450 O.3   618  TYR618     -0.2866
    127  N         81.4550   47.7230   24.4300 N.3   763  HIS763     -0.1241
    128  CA        80.9950   46.3630   24.5740 C.3   763  HIS763      0.1621
    129  C         81.4520   45.7440   25.8810 C.2   763  HIS763      0.2264
    130  O         80.6160   45.2210   26.6230 O.2   763  HIS763     -0.2867
    131  CB        81.4420   45.5260   23.4000 C.3   763  HIS763      0.0745
    132  CG        80.6760   45.8350   22.1640 C.ar  763  HIS763      0.0817
    133  ND1       80.9820   45.2980   20.9310 N.ar  763  HIS763     -0.2268
    134  CD2       79.6030   46.6350   21.9730 C.ar  763  HIS763      0.1154
    135  CE1       80.1260   45.7540   20.0330 C.ar  763  HIS763      0.1986
    136  NE2       79.2790   46.5680   20.6410 N.ar  763  HIS763     -0.2212
    137  N         71.0090   38.4000   27.1080 N.3   789  ILE789     -0.1231
    138  CA        71.3900   38.5850   25.7180 C.3   789  ILE789      0.1692
    139  C         72.0940   39.9240   25.5430 C.2   789  ILE789      0.2592
    140  O         71.5920   40.8350   24.9000 O.2   789  ILE789     -0.2718
    141  CB        70.1600   38.4760   24.7420 C.3   789  ILE789      0.0266
    142  CG1       69.4950   37.1020   24.8800 C.3   789  ILE789      0.0019
    143  CG2       70.6260   38.5990   23.2920 C.3   789  ILE789      0.0020
    144  CD1       68.1110   37.0190   24.2640 C.3   789  ILE789      0.0001
    145  N         73.2790   40.0100   26.1330 N.am  790  HIS790     -0.1962
    146  CA        74.1250   41.1920   26.0710 C.3   790  HIS790      0.1787
    147  C         73.5800   42.5070   26.6520 C.2   790  HIS790      0.2620
    148  O         74.2980   43.1670   27.4000 O.2   790  HIS790     -0.2715
    149  CB        74.5880   41.4060   24.6170 C.3   790  HIS790      0.0785
    150  CG        75.1170   40.1600   23.9720 C.ar  790  HIS790      0.0821
    151  ND1       74.4330   39.4830   22.9880 N.ar  790  HIS790     -0.2267
    152  CD2       76.2330   39.4320   24.2170 C.ar  790  HIS790      0.1154
    153  CE1       75.1000   38.3910   22.6560 C.ar  790  HIS790      0.1986
    154  NE2       76.1970   38.3370   23.3870 N.ar  790  HIS790     -0.2212
    155  N         72.3560   42.8900   26.2800 N.am  791  ASP791     -0.1957
    156  CA        71.7130   44.1360   26.7300 C.3   791  ASP791      0.1840
    157  C         70.2070   43.9870   26.8320 C.2   791  ASP791      0.2622
    158  O         69.4550   44.9590   26.7040 O.2   791  ASP791     -0.2715
    159  CB        71.9930   45.3320   25.8030 C.3   791  ASP791      0.1450
    160  CG        71.7030   45.0490   24.2860 C.2   791  ASP791      0.3671
    161  OD1       70.8090   44.2290   23.9130 O.co2 791  ASP791     -0.2456
    162  OD2       72.3940   45.7030   23.4610 O.co2 791  ASP791     -0.2456
    163  N         69.7920   42.7450   27.0110 N.am  792  SER792     -0.1950
    164  CA        68.4090   42.3730   27.1880 C.3   792  SER792      0.1924
    165  C         68.5850   41.5050   28.4520 C.2   792  SER792      0.2314
    166  O         69.5220   40.6840   28.5150 O.2   792  SER792     -0.2863
    167  CB        67.9450   41.5310   26.0070 C.3   792  SER792      0.2116
    168  OG        66.5870   41.1680   26.1180 O.3   792  SER792     -0.2180
@<TRIPOS>BOND
     1    21    22    1
     2    25    22    1
     3    22    23    1
     4    23    24    2
     5    11    10    2
     6    10     9    1
     7     9    12    1
     8     9     8    1
     9    33    32    1
    10    33    34    2
    11    32    31    1
    12    26    27    1
    13    36    34    1
    14    34    35    1
    15    30    31    1
    16    30    27    1
    17    27    28    1
    18    28    29    2
    19     1     2    1
    20    16    15    2
    21     3     4    2
    22     3     2    1
    23    15    14    1
    24    13    14    1
    25     2     5    1
    26    14    17    1
    27    37    38    1
    28    19    18   ar
    29    17    18    1
    30     5     7    1
    31     5     6    1
    32    18    20   ar
    33    41    38    1
    34    41    42    1
    35    38    39    1
    36    39    40    2
    37   118   117    2
    38    96    95    2
    39   119   120    1
    40   119   116    1
    41   122   124   ar
    42   122   120   ar
    43   117   116    1
    44   124   125   ar
    45   120   121   ar
    46    95    94    1
    47    95    97   am
    48   116   115    1
    49    94    91    1
    50   125   126    1
    51   125   123   ar
    52   121   123   ar
    53   102   103    1
    54   102    99    1
    55   105   103   ar
    56    91    92    1
    57    91    90    1
    58    98    99    1
    59    98    92   am
    60   103   104   ar
    61    99   100    1
    62    92    93    2
    63    90    88   am
    64   100   101    2
    65    88    87    1
    66    88    89    2
    67    87    86    1
    68   135   136   ar
    69   135   133   ar
    70   136   134   ar
    71    80    79    2
    72    53    51    1
    73   106   107    1
    74    86    79   am
    75   133   132   ar
    76   113   114    1
    77   113   112    1
    78    79    78    1
    79    51    52    1
    80    51    50    2
    81    76    75    1
    82    74    75   ar
    83    74    72   ar
    84    50    49    1
    85    63    62    1
    86   134   132   ar
    87   111   110    1
    88   111   112    1
    89    75    73   ar
    90   110   107    1
    91   107   108    1
    92   132   131    1
    93    72    70   ar
    94    49    48    1
    95   108   109    2
    96   153   151   ar
    97   153   154   ar
    98    78    81    1
    99    78    77    1
   100   151   150   ar
   101    81    82    1
   102    62    64    1
   103    62    61    2
   104    73    71   ar
   105   143   141    1
   106   154   152   ar
   107   131   128    1
   108    70    71   ar
   109    70    69    1
   110   162   160   ar
   111    48    47    1
   112    85    83   am
   113    60    61    1
   114    60    59    1
   115   161   160   ar
   116   150   152   ar
   117   150   149    1
   118    69    66    1
   119   144   142    1
   120   160   159    1
   121   127   128    1
   122    82    83    1
   123   128   129    1
   124    83    84    2
   125   149   146    1
   126   141   142    1
   127   141   138    1
   128    47    44    1
   129   140   139    2
   130    43    44    1
   131    59    58    1
   132    58    55    1
   133    66    67    1
   134    66    65    1
   135   139   138    1
   136   139   145   am
   137    44    45    1
   138   138   137    1
   139   159   156    1
   140   129   130    2
   141    67    68    2
   142   167   168    1
   143   167   164    1
   144   146   145    1
   145   146   147    1
   146   155   147   am
   147   155   156    1
   148   147   148    2
   149    57    56    2
   150   158   157    2
   151   156   157    1
   152    55    56    1
   153    55    54    1
   154   157   163   am
   155    45    46    2
   156   163   164    1
   157   164   165    1
   158   165   166    2
