@<TRIPOS>MOLECULE
tmp/1qlrB00.pdb
 81 77 0 0 0
SMALL
GASTEIGER

@<TRIPOS>ATOM
      1  N        -28.7940   44.2470   58.3330 N.3   155  TYR155     -0.1241
      2  CA       -29.5270   45.3630   58.9080 C.3   155  TYR155      0.1605
      3  C        -29.9570   45.0210   60.3400 C.2   155  TYR155      0.2264
      4  O        -30.0850   43.8450   60.7010 O.2   155  TYR155     -0.2867
      5  CB       -30.8300   45.7150   58.1820 C.3   155  TYR155      0.0534
      6  CG       -30.6070   46.3410   56.8300 C.ar  155  TYR155     -0.0201
      7  CD1      -30.1750   47.6440   56.7160 C.ar  155  TYR155     -0.0009
      8  CD2      -30.7330   45.5700   55.6840 C.ar  155  TYR155     -0.0009
      9  CE1      -29.9090   48.1890   55.4800 C.ar  155  TYR155      0.0417
     10  CE2      -30.4540   46.1000   54.4400 C.ar  155  TYR155      0.0417
     11  CZ       -30.0610   47.4230   54.3420 C.ar  155  TYR155      0.1957
     12  OH       -29.7980   47.9620   53.0970 O.3   155  TYR155     -0.2866
     13  N        -32.9780   45.2000   61.4760 N.3   157  ASN157     -0.1240
     14  CA       -34.0900   44.3170   61.1880 C.3   157  ASN157      0.1653
     15  C        -33.5610   43.1420   60.3730 C.2   157  ASN157      0.2266
     16  O        -33.6970   43.1390   59.1490 O.2   157  ASN157     -0.2867
     17  CB       -35.1890   45.0290   60.4190 C.3   157  ASN157      0.1155
     18  CG       -34.7970   45.8550   59.2040 C.2   157  ASN157      0.2627
     19  OD1      -34.1470   46.8990   59.3650 O.2   157  ASN157     -0.2716
     20  ND2      -35.2290   45.4150   58.0640 N.am  157  ASN157     -0.0877
     21  N        -31.8430   41.0280   58.0950 N.3   159  SER159     -0.1217
     22  CA       -31.9790   40.8160   56.6590 C.3   159  SER159      0.1889
     23  C        -30.7180   41.3240   55.9420 C.2   159  SER159      0.2288
     24  O        -30.1460   42.3350   56.3530 O.2   159  SER159     -0.2866
     25  CB       -33.2160   41.4730   56.0720 C.3   159  SER159      0.2089
     26  OG       -33.2960   42.8470   56.4060 O.3   159  SER159     -0.2183
     27  N        -24.7740   52.6810   51.4510 N.3   184  LEU184     -0.1231
     28  CA       -26.1960   52.8170   51.7140 C.3   184  LEU184      0.1678
     29  C        -26.7580   54.1280   51.1600 C.2   184  LEU184      0.2434
     30  O        -26.1550   55.1610   51.4080 O.2   184  LEU184     -0.2733
     31  CB       -26.4600   52.9060   53.2150 C.3   184  LEU184      0.0284
     32  CG       -25.8720   51.8470   54.1290 C.3   184  LEU184      0.0019
     33  CD1      -25.7920   52.3830   55.5540 C.3   184  LEU184      0.0001
     34  CD2      -26.7230   50.5870   54.0580 C.3   184  LEU184      0.0001
     35  N        -27.9320   54.0830   50.5600 N.am  185  PRO185     -0.2729
     36  CA       -28.5820   55.2350   49.9870 C.3   185  PRO185      0.1401
     37  C        -29.2520   56.1340   51.0070 C.2   185  PRO185      0.2269
     38  O        -29.9240   55.6750   51.9170 O.2   185  PRO185     -0.2865
     39  CB       -29.6340   54.6370   49.0460 C.3   185  PRO185      0.0296
     40  CG       -30.0070   53.3680   49.7340 C.3   185  PRO185      0.0237
     41  CD       -28.7020   52.8400   50.2870 C.3   185  PRO185      0.0939
     42  N        -36.4270   54.3610   61.0510 N.3   186  THR186     -0.1203
     43  CA       -34.9850   54.5110   61.1840 C.3   186  THR186      0.1994
     44  C        -34.3480   53.1750   61.5470 C.2   186  THR186      0.2617
     45  O        -34.8870   52.0890   61.3610 O.2   186  THR186     -0.2717
     46  CB       -34.5310   55.5790   62.2010 C.3   186  THR186      0.1784
     47  OG1      -35.5230   55.7840   63.2070 O.3   186  THR186     -0.2211
     48  CG2      -34.1910   56.8920   61.5110 C.3   186  THR186      0.0376
     49  N        -33.1270   53.2410   62.0140 N.am  187  ASP187     -0.1973
     50  CA       -32.2130   52.2280   62.4580 C.3   187  ASP187      0.1709
     51  C        -31.0420   53.0740   63.0110 C.2   187  ASP187      0.2293
     52  O        -30.7600   54.1540   62.4750 O.2   187  ASP187     -0.2864
     53  CB       -31.7180   51.2960   61.3710 C.3   187  ASP187      0.1436
     54  CG       -32.6610   50.2480   60.8230 C.2   187  ASP187      0.3671
     55  OD1      -33.1210   49.3800   61.6030 O.co2 187  ASP187     -0.2456
     56  OD2      -33.0180   50.3370   59.6210 O.co2 187  ASP187     -0.2456
     57  N        -28.0860   51.5880   63.7790 N.3   189  HIS189     -0.1226
     58  CA       -26.8430   50.9150   63.4300 C.3   189  HIS189      0.1752
     59  C        -27.0270   49.8350   62.3640 C.2   189  HIS189      0.2595
     60  O        -28.1390   49.4060   62.0570 O.2   189  HIS189     -0.2718
     61  CB       -26.1670   50.2860   64.6470 C.3   189  HIS189      0.0759
     62  CG       -26.8070   49.0210   65.1430 C.ar  189  HIS189      0.0818
     63  ND1      -27.3890   48.9430   66.3860 N.ar  189  HIS189     -0.2268
     64  CD2      -26.9270   47.7820   64.6020 C.ar  189  HIS189      0.1154
     65  CE1      -27.8520   47.7240   66.5830 C.ar  189  HIS189      0.1986
     66  NE2      -27.5980   47.0030   65.5060 N.ar  189  HIS189     -0.2212
     67  N        -25.8880   49.3060   61.9280 N.am  190  VAL190     -0.1980
     68  CA       -25.8570   48.2230   60.9480 C.3   190  VAL190      0.1595
     69  C        -24.8430   47.2100   61.4310 C.2   190  VAL190      0.2287
     70  O        -24.0590   47.5810   62.3260 O.2   190  VAL190     -0.2864
     71  CB       -25.5940   48.8320   59.5820 C.3   190  VAL190      0.0276
     72  CG1      -24.1200   48.8630   59.2120 C.3   190  VAL190      0.0022
     73  CG2      -26.4530   48.0980   58.5740 C.3   190  VAL190      0.0022
     74  N        -24.4750   54.5750   62.3600 N.3   207  LEU207     -0.1245
     75  CA       -24.8230   55.3840   61.2010 C.3   207  LEU207      0.1561
     76  C        -24.5260   56.8490   61.5210 C.2   207  LEU207      0.2260
     77  O        -24.4820   57.3270   62.6640 O.2   207  LEU207     -0.2867
     78  CB       -26.2580   55.0990   60.8200 C.3   207  LEU207      0.0270
     79  CG       -26.5170   53.8170   60.0320 C.3   207  LEU207      0.0019
     80  CD1      -27.9840   53.7630   59.6160 C.3   207  LEU207      0.0001
     81  CD2      -25.6170   53.7240   58.8010 C.3   207  LEU207      0.0001
@<TRIPOS>BOND
     1    39    40    1
     2    39    36    1
     3    40    41    1
     4    36    35    1
     5    36    37    1
     6    41    35    1
     7    35    29   am
     8    37    38    2
     9    29    30    2
    10    29    28    1
    11    27    28    1
    12    28    31    1
    13    12    11    1
    14    31    32    1
    15    34    32    1
    16    32    33    1
    17    11    10   ar
    18    11     9   ar
    19    10     8   ar
    20     9     7   ar
    21     8     6   ar
    22    23    24    2
    23    23    22    1
    24    25    26    1
    25    25    22    1
    26    22    21    1
    27     7     6   ar
    28     6     5    1
    29    20    18   am
    30     5     2    1
    31     1     2    1
    32    73    71    1
    33    81    79    1
    34     2     3    1
    35    16    15    2
    36    18    19    2
    37    18    17    1
    38    72    71    1
    39    71    68    1
    40    80    79    1
    41    56    54   ar
    42    79    78    1
    43     3     4    2
    44    15    14    1
    45    17    14    1
    46    78    75    1
    47    54    53    1
    48    54    55   ar
    49    68    69    1
    50    68    67    1
    51    42    43    1
    52    43    44    1
    53    43    46    1
    54    14    13    1
    55    75    76    1
    56    75    74    1
    57    45    44    2
    58    53    50    1
    59    69    70    2
    60    48    46    1
    61    76    77    2
    62    44    49   am
    63    67    59   am
    64    49    50    1
    65    60    59    2
    66    46    47    1
    67    59    58    1
    68    50    51    1
    69    52    51    2
    70    58    57    1
    71    58    61    1
    72    64    62   ar
    73    64    66   ar
    74    61    62    1
    75    62    63   ar
    76    66    65   ar
    77    63    65   ar
