@<TRIPOS>MOLECULE
tmp/1qlsA00.pdb
 103 97 0 0 0
SMALL
GASTEIGER

@<TRIPOS>ATOM
      1  N         -4.7730   57.1970   46.6660 N.3    41  LEU41      -0.1245
      2  CA        -4.1540   57.9190   45.6120 C.3    41  LEU41       0.1561
      3  C         -4.3580   57.2680   44.2320 C.2    41  LEU41       0.2260
      4  O         -3.4600   57.2980   43.4110 O.2    41  LEU41      -0.2867
      5  CB        -2.6700   58.1210   45.9270 C.3    41  LEU41       0.0270
      6  CG        -2.4210   59.0770   47.1490 C.3    41  LEU41       0.0019
      7  CD1       -0.9410   59.2630   47.3890 C.3    41  LEU41       0.0001
      8  CD2       -3.1290   60.4050   46.8880 C.3    41  LEU41       0.0001
      9  N         -6.0260   57.9790   41.5680 N.3    43  ALA43      -0.1231
     10  CA        -5.9380   58.9220   40.4850 C.3    43  ALA43       0.1694
     11  C         -4.5350   59.1870   40.0220 C.2    43  ALA43       0.2592
     12  O         -4.2340   59.2930   38.8180 O.2    43  ALA43      -0.2718
     13  CB        -6.7300   60.1760   40.8220 C.3    43  ALA43       0.0304
     14  N         -3.5850   59.2590   40.9360 N.am   44  PHE44      -0.1976
     15  CA        -2.1930   59.4750   40.5290 C.3    44  PHE44       0.1639
     16  C         -1.6050   58.1420   40.1320 C.2    44  PHE44       0.2290
     17  O         -0.6960   58.0410   39.3000 O.2    44  PHE44      -0.2864
     18  CB        -1.4630   60.0630   41.7360 C.3    44  PHE44       0.0560
     19  CG         0.0010   59.7970   41.8300 C.ar   44  PHE44      -0.0200
     20  CD1        0.5140   58.5570   42.1550 C.ar   44  PHE44      -0.0042
     21  CD2        0.8930   60.8490   41.5840 C.ar   44  PHE44      -0.0042
     22  CE1        1.8690   58.3350   42.2290 C.ar   44  PHE44      -0.0003
     23  CE2        2.2530   60.6310   41.6630 C.ar   44  PHE44      -0.0003
     24  CZ         2.7440   59.3790   41.9860 C.ar   44  PHE44      -0.0000
     25  N         -2.8450   56.5800   36.4870 N.3    47  ASN47      -0.1225
     26  CA        -2.1700   57.2030   35.3270 C.3    47  ASN47       0.1785
     27  C         -0.9330   56.3860   34.9810 C.2    47  ASN47       0.2597
     28  O         -0.8880   55.7450   33.9220 O.2    47  ASN47      -0.2718
     29  CB        -1.9300   58.6580   35.6160 C.3    47  ASN47       0.1169
     30  CG        -0.5420   59.1860   35.4080 C.2    47  ASN47       0.2627
     31  OD1       -0.1410   59.5700   34.3060 O.2    47  ASN47      -0.2716
     32  ND2        0.2210   59.2080   36.4960 N.am   47  ASN47      -0.0877
     33  N          0.0700   56.3740   35.8430 N.am   48  GLN48      -0.1979
     34  CA         1.3000   55.6060   35.6080 C.3    48  GLN48       0.1601
     35  C          0.9580   54.1620   35.2790 C.2    48  GLN48       0.2287
     36  O          0.0450   53.5930   35.9000 O.2    48  GLN48      -0.2864
     37  CB         2.1840   55.8020   36.8540 C.3    48  GLN48       0.0394
     38  CG         2.7090   57.2280   36.9240 C.3    48  GLN48       0.0908
     39  CD         2.6020   57.9390   38.2380 C.2    48  GLN48       0.2608
     40  OE1        1.7190   58.7570   38.5250 O.2    48  GLN48      -0.2717
     41  NE2        3.5400   57.6590   39.1490 N.am   48  GLN48      -0.0878
     42  N          7.2340   51.8170   39.1330 N.3    53  VAL53      -0.1245
     43  CA         7.1870   53.1360   39.7070 C.3    53  VAL53       0.1561
     44  C          6.9840   53.0980   41.2260 C.2    53  VAL53       0.2260
     45  O          7.8180   53.6180   41.9600 O.2    53  VAL53      -0.2867
     46  CB         6.1630   54.0400   39.0260 C.3    53  VAL53       0.0252
     47  CG1        4.7290   53.6390   39.3450 C.3    53  VAL53       0.0019
     48  CG2        6.3820   55.4910   39.4330 C.3    53  VAL53       0.0019
     49  N          9.8570   52.0690   43.0160 N.3    56  ARG56      -0.1231
     50  CA        10.8870   53.1170   43.0770 C.3    56  ARG56       0.1694
     51  C         10.4430   54.1830   44.0540 C.2    56  ARG56       0.2591
     52  O         11.2850   54.7750   44.6890 O.2    56  ARG56      -0.2718
     53  CB        11.1890   53.7200   41.6810 C.3    56  ARG56       0.0321
     54  CG        12.1040   52.7880   40.8780 C.3    56  ARG56       0.0489
     55  CD        12.6670   53.3770   39.5880 C.3    56  ARG56       0.2205
     56  NE        11.6710   53.5980   38.5770 N.pl3  56  ARG56      -0.0865
     57  CZ        11.0070   52.7740   37.7960 C.cat  56  ARG56       0.5346
     58  NH1       11.1510   51.4580   37.7760 N.pl3  56  ARG56       0.1354
     59  NH2       10.1090   53.3070   36.9570 N.pl3  56  ARG56       0.1354
     60  N          9.1490   54.4420   44.1900 N.am   57  MET57      -0.1979
     61  CA         8.7420   55.4660   45.1610 C.3    57  MET57       0.1605
     62  C          9.0320   54.9580   46.6060 C.2    57  MET57       0.2287
     63  O          9.5670   55.6560   47.4510 O.2    57  MET57      -0.2864
     64  CB         7.2790   55.8020   45.0180 C.3    57  MET57       0.0413
     65  CG         6.8630   56.4820   43.7370 C.3    57  MET57       0.0598
     66  SD         5.1780   57.1380   43.8300 S.3    57  MET57      -0.1393
     67  CE         5.1040   57.7060   45.4850 C.3    57  MET57       0.0692
     68  N          3.6900   65.4790   47.4430 N.3    81  LEU81      -0.1245
     69  CA         2.5310   65.6520   46.6050 C.3    81  LEU81       0.1561
     70  C          1.8400   67.0010   46.7960 C.2    81  LEU81       0.2260
     71  O          1.3790   67.6180   45.8280 O.2    81  LEU81      -0.2867
     72  CB         1.4840   64.5650   46.8830 C.3    81  LEU81       0.0270
     73  CG         1.9260   63.1270   46.5770 C.3    81  LEU81       0.0019
     74  CD1        0.7280   62.1800   46.7060 C.3    81  LEU81       0.0001
     75  CD2        2.5450   62.9690   45.2050 C.3    81  LEU81       0.0001
     76  N          4.1280   69.6180   45.0360 N.3    84  ALA84      -0.1231
     77  CA         3.9870   69.6400   43.5800 C.3    84  ALA84       0.1694
     78  C          2.6550   70.2350   43.2080 C.2    84  ALA84       0.2592
     79  O          2.5090   71.0500   42.2960 O.2    84  ALA84      -0.2718
     80  CB         4.1730   68.2360   43.0140 C.3    84  ALA84       0.0304
     81  N          1.5750   69.8980   43.9150 N.am   85  CYS85      -0.1970
     82  CA         0.2910   70.4490   43.5780 C.3    85  CYS85       0.1712
     83  C          0.1900   71.9570   43.7850 C.2    85  CYS85       0.2296
     84  O         -0.5030   72.6840   43.0700 O.2    85  CYS85      -0.2864
     85  CB        -0.7410   69.7940   44.4740 C.3    85  CYS85       0.0983
     86  SG        -1.3320   68.1570   44.0670 S.3    85  CYS85      -0.0798
     87  N          2.0200   73.7090   40.9310 N.3    88  SER88      -0.1202
     88  CA         1.1730   73.7740   39.7670 C.3    88  SER88       0.2020
     89  C          0.0780   74.8130   39.9380 C.2    88  SER88       0.2618
     90  O         -0.2850   75.4490   38.9620 O.2    88  SER88      -0.2717
     91  CB         0.3630   72.4450   39.5000 C.3    88  SER88       0.2103
     92  OG         1.3220   71.4920   39.1330 O.3    88  SER88      -0.2182
     93  N         -0.4550   74.9530   41.1690 N.am   89  PHE89      -0.1975
     94  CA        -1.5000   75.9760   41.2950 C.3    89  PHE89       0.1639
     95  C         -0.8250   77.3640   41.1070 C.2    89  PHE89       0.2290
     96  O         -1.4550   78.2370   40.5240 O.2    89  PHE89      -0.2864
     97  CB        -2.2800   75.8480   42.5780 C.3    89  PHE89       0.0560
     98  CG        -2.9340   77.1170   43.0580 C.ar   89  PHE89      -0.0200
     99  CD1       -2.2180   78.0160   43.8570 C.ar   89  PHE89      -0.0042
    100  CD2       -4.2390   77.4150   42.7220 C.ar   89  PHE89      -0.0042
    101  CE1       -2.7880   79.1850   44.3040 C.ar   89  PHE89      -0.0003
    102  CE2       -4.8270   78.5820   43.1640 C.ar   89  PHE89      -0.0003
    103  CZ        -4.1020   79.4690   43.9530 C.ar   89  PHE89      -0.0000
@<TRIPOS>BOND
     1    28    27    2
     2    31    30    2
     3    27    26    1
     4    27    33   am
     5    35    34    1
     6    35    36    2
     7    26    29    1
     8    26    25    1
     9    30    29    1
    10    30    32   am
    11    34    33    1
    12    34    37    1
    13    37    38    1
    14    38    39    1
    15    59    57    1
    16    58    57    1
    17    57    56    2
    18    39    40    2
    19    39    41   am
    20    56    55    1
    21    12    11    2
    22    90    89    2
    23    46    47    1
    24    46    48    1
    25    46    43    1
    26    92    91    1
    27    42    43    1
    28    17    16    2
    29    91    88    1
    30    55    54    1
    31    43    44    1
    32    88    89    1
    33    88    87    1
    34    89    93   am
    35    11    10    1
    36    11    14   am
    37    16    15    1
    38    10    13    1
    39    10     9    1
    40    96    95    2
    41    15    14    1
    42    15    18    1
    43    54    53    1
    44    95    94    1
    45    93    94    1
    46    44    45    2
    47    94    97    1
    48    21    23   ar
    49    21    19   ar
    50    23    24   ar
    51    53    50    1
    52    18    19    1
    53    19    20   ar
    54    24    22   ar
    55    20    22   ar
    56    79    78    2
    57    97    98    1
    58   100    98   ar
    59   100   102   ar
    60    80    77    1
    61    49    50    1
    62    98    99   ar
    63    84    83    2
    64    50    51    1
    65   102   103   ar
    66    78    77    1
    67    78    81   am
    68     4     3    2
    69    82    83    1
    70    82    81    1
    71    82    85    1
    72    77    76    1
    73    65    66    1
    74    65    64    1
    75    66    67    1
    76    99   101   ar
    77   103   101   ar
    78    51    60   am
    79    51    52    2
    80    86    85    1
    81    60    61    1
    82     3     2    1
    83    64    61    1
    84    61    62    1
    85    75    73    1
    86     2     5    1
    87     2     1    1
    88    71    70    2
    89     5     6    1
    90    73    74    1
    91    73    72    1
    92    69    70    1
    93    69    72    1
    94    69    68    1
    95    62    63    2
    96     8     6    1
    97     6     7    1
