@<TRIPOS>MOLECULE
tmp/1qm4A00.pdb
 86 82 0 0 0
SMALL
GASTEIGER

@<TRIPOS>ATOM
      1  N         10.6050   38.7350   52.1980 N.3    14  HIS14      -0.1227
      2  CA        10.2770   37.4670   51.6070 C.3    14  HIS14       0.1737
      3  C         11.6320   36.7640   51.7500 C.2    14  HIS14       0.2438
      4  O         12.6830   37.3620   51.4590 O.2    14  HIS14      -0.2733
      5  CB         9.8760   37.6410   50.1390 C.3    14  HIS14       0.0758
      6  CG         9.5140   36.3560   49.4570 C.ar   14  HIS14       0.0818
      7  ND1       10.4700   35.5340   48.9160 N.ar   14  HIS14      -0.2268
      8  CD2        8.3220   35.7440   49.2600 C.ar   14  HIS14       0.1154
      9  CE1        9.8840   34.4610   48.4100 C.ar   14  HIS14       0.1986
     10  NE2        8.5890   34.5600   48.6010 N.ar   14  HIS14      -0.2212
     11  N         11.6510   35.5270   52.2810 N.am   15  PRO15      -0.2729
     12  CA        12.8570   34.7130   52.4840 C.3    15  PRO15       0.1401
     13  C         13.8900   34.7000   51.3480 C.2    15  PRO15       0.2269
     14  O         15.0860   34.8160   51.6180 O.2    15  PRO15      -0.2865
     15  CB        12.2980   33.3150   52.7070 C.3    15  PRO15       0.0296
     16  CG        11.0340   33.5560   53.3160 C.3    15  PRO15       0.0237
     17  CD        10.4600   34.7020   52.5320 C.3    15  PRO15       0.0939
     18  N          7.6710   41.0130   55.3000 N.3   152  ASP152     -0.1225
     19  CA         7.3520   40.0890   54.2220 C.3   152  ASP152      0.1805
     20  C          6.0190   40.3780   53.5330 C.2   152  ASP152      0.2598
     21  O          4.9700   40.4040   54.1610 O.2   152  ASP152     -0.2718
     22  CB         7.4620   38.6500   54.7880 C.3   152  ASP152      0.1424
     23  CG         7.2640   37.5510   53.7480 C.2   152  ASP152      0.3668
     24  OD1        7.3730   37.7540   52.5260 O.co2 152  ASP152     -0.2456
     25  OD2        7.0070   36.4150   54.1900 O.co2 152  ASP152     -0.2456
     26  N          6.0830   40.5720   52.2290 N.am  153  SER153     -0.1938
     27  CA         4.9120   40.8210   51.4140 C.3   153  SER153      0.2055
     28  C          5.0890   40.1970   50.0450 C.2   153  SER153      0.2642
     29  O          6.1950   39.8540   49.6490 O.2   153  SER153     -0.2714
     30  CB         4.7530   42.3130   51.2110 C.3   153  SER153      0.2130
     31  OG         5.8980   42.8180   50.5610 O.3   153  SER153     -0.2179
     32  N          3.9790   40.0920   49.3200 N.am  154  LYS154     -0.1977
     33  CA         3.9550   39.6190   47.9470 C.3   154  LYS154      0.1596
     34  C          2.8820   40.4280   47.2270 C.2   154  LYS154      0.2287
     35  O          1.8230   40.6740   47.7690 O.2   154  LYS154     -0.2864
     36  CB         3.6690   38.1350   47.8350 C.3   154  LYS154      0.0298
     37  CG         3.5750   37.6450   46.4010 C.3   154  LYS154      0.0038
     38  CD         3.3280   36.1640   46.3910 C.3   154  LYS154      0.0206
     39  CE         2.6970   35.6980   45.1030 C.3   154  LYS154      0.1093
     40  NZ         1.9130   34.4540   45.3580 N.3   154  LYS154     -0.1314
     41  N         -0.5650   40.6350   49.7630 N.3   179  SER179     -0.1217
     42  CA        -0.5260   39.9820   51.0530 C.3   179  SER179      0.1889
     43  C          0.6970   40.5570   51.7310 C.2   179  SER179      0.2288
     44  O          1.7430   40.6110   51.1240 O.2   179  SER179     -0.2866
     45  CB        -0.2740   38.4850   50.9000 C.3   179  SER179      0.2089
     46  OG        -1.0790   37.8370   49.9260 O.3   179  SER179     -0.2183
     47  N         -5.5600   35.2200   51.9910 N.3   220  SER220     -0.1217
     48  CA        -5.4670   34.0650   52.8520 C.3   220  SER220      0.1889
     49  C         -5.7060   34.4410   54.2920 C.2   220  SER220      0.2288
     50  O         -5.2810   33.7380   55.2110 O.2   220  SER220     -0.2866
     51  CB        -4.0750   33.4590   52.7230 C.3   220  SER220      0.2089
     52  OG        -3.5350   33.5840   51.4020 O.3   220  SER220     -0.2183
     53  N         -4.9310   35.9940   57.6000 N.3   222  ARG222     -0.1231
     54  CA        -3.8460   36.6060   58.3240 C.3   222  ARG222      0.1694
     55  C         -2.5440   36.0000   57.9510 C.2   222  ARG222      0.2592
     56  O         -2.5170   34.8600   57.4870 O.2   222  ARG222     -0.2718
     57  CB        -4.1320   36.4820   59.8100 C.3   222  ARG222      0.0321
     58  CG        -5.5910   36.9400   60.1730 C.3   222  ARG222      0.0489
     59  CD        -5.5640   38.1850   61.0270 C.3   222  ARG222      0.2205
     60  NE        -4.6930   38.0010   62.1990 N.pl3 222  ARG222     -0.0865
     61  CZ        -4.3830   39.0100   63.0140 C.cat 222  ARG222      0.5346
     62  NH1       -4.9020   40.2330   62.7280 N.pl3 222  ARG222      0.1354
     63  NH2       -3.6600   38.8040   64.1430 N.pl3 222  ARG222      0.1354
     64  N         -1.4700   36.7410   58.2410 N.am  223  PHE223     -0.1976
     65  CA        -0.0700   36.4170   57.9250 C.3   223  PHE223      0.1639
     66  C          0.6790   37.2220   59.0430 C.2   223  PHE223      0.2290
     67  O          1.1680   38.3220   58.8310 O.2   223  PHE223     -0.2864
     68  CB         0.1150   36.9650   56.4880 C.3   223  PHE223      0.0560
     69  CG         1.5310   36.9290   55.9520 C.ar  223  PHE223     -0.0200
     70  CD1        2.6300   36.6240   56.7590 C.ar  223  PHE223     -0.0042
     71  CD2        1.7620   37.2480   54.6060 C.ar  223  PHE223     -0.0042
     72  CE1        3.9210   36.6210   56.2280 C.ar  223  PHE223     -0.0003
     73  CE2        3.0590   37.2380   54.0650 C.ar  223  PHE223     -0.0003
     74  CZ         4.1220   36.9390   54.8710 C.ar  223  PHE223     -0.0000
     75  N          4.0810   35.0080   60.1190 N.3   226  GLY226     -0.1210
     76  CA         4.4770   34.5230   58.8210 C.3   226  GLY226      0.1956
     77  C          6.0040   34.7000   58.7540 C.2   226  GLY226      0.2612
     78  O          6.7590   33.7050   59.0020 O.2   226  GLY226     -0.2717
     79  N          6.4950   35.9360   58.5480 N.am  227  GLY227     -0.1956
     80  CA         7.9410   36.1150   58.4860 C.3   227  GLY227      0.1869
     81  C          8.6180   35.1840   57.4830 C.2   227  GLY227      0.2309
     82  O          8.0120   34.2870   56.8480 O.2   227  GLY227     -0.2863
     83  N          8.9100   30.4190   54.8230 N.3   230  GLY230     -0.1225
     84  CA         8.4340   29.8400   53.5650 C.3   230  GLY230      0.1811
     85  C          9.1050   28.4910   53.3860 C.2   230  GLY230      0.2280
     86  O          9.3990   28.0720   52.2550 O.2   230  GLY230     -0.2866
@<TRIPOS>BOND
     1    39    40    1
     2    39    38    1
     3    38    37    1
     4    37    36    1
     5    34    35    2
     6    34    33    1
     7    36    33    1
     8    33    32    1
     9     9    10   ar
    10     9     7   ar
    11    10     8   ar
    12     7     6   ar
    13     8     6   ar
    14    32    28   am
    15     6     5    1
    16    29    28    2
    17    41    42    1
    18    46    45    1
    19    28    27    1
    20     5     2    1
    21    31    30    1
    22    45    42    1
    23    42    43    1
    24    44    43    2
    25    30    27    1
    26    13    14    2
    27    13    12    1
    28    52    51    1
    29    27    26    1
    30     4     3    2
    31     2     3    1
    32     2     1    1
    33     3    11   am
    34    47    48    1
    35    26    20   am
    36    86    85    2
    37    11    12    1
    38    11    17    1
    39    12    15    1
    40    24    23   ar
    41    17    16    1
    42    15    16    1
    43    51    48    1
    44    48    49    1
    45    85    84    1
    46    20    21    2
    47    20    19    1
    48    84    83    1
    49    23    25   ar
    50    23    22    1
    51    73    71   ar
    52    73    74   ar
    53    19    22    1
    54    19    18    1
    55    49    50    2
    56    71    69   ar
    57    74    72   ar
    58    69    68    1
    59    69    70   ar
    60    72    70   ar
    61    68    65    1
    62    82    81    2
    63    81    80    1
    64    56    55    2
    65    53    54    1
    66    65    64    1
    67    65    66    1
    68    55    64   am
    69    55    54    1
    70    54    57    1
    71    80    79    1
    72    79    77   am
    73    77    76    1
    74    77    78    2
    75    76    75    1
    76    67    66    2
    77    57    58    1
    78    58    59    1
    79    59    60    1
    80    60    61    2
    81    62    61    1
    82    61    63    1
