@<TRIPOS>MOLECULE
tmp/1qmgD01.pdb
 136 127 0 0 0
SMALL
GASTEIGER

@<TRIPOS>ATOM
      1  N         10.0870    2.8750   76.2220 N.3    53  SER53      -0.1202
      2  CA        10.1930    1.5270   76.7810 C.3    53  SER53       0.2020
      3  C         11.6530    1.1650   77.0430 C.2    53  SER53       0.2618
      4  O         11.9700    0.4550   77.9910 O.2    53  SER53      -0.2717
      5  CB         9.5680    0.4880   75.8490 C.3    53  SER53       0.2103
      6  OG        10.2160    0.4680   74.5900 O.3    53  SER53      -0.2182
      7  N         12.5410    1.6470   76.1850 N.am   54  GLN54      -0.1979
      8  CA        13.9570    1.3650   76.3250 C.3    54  GLN54       0.1601
      9  C         14.6740    2.2330   77.3500 C.2    54  GLN54       0.2287
     10  O         15.3380    1.7060   78.2380 O.2    54  GLN54      -0.2864
     11  CB        14.6600    1.4680   74.9690 C.3    54  GLN54       0.0394
     12  CG        14.3840    0.2910   74.0520 C.3    54  GLN54       0.0908
     13  CD        14.9530   -1.0220   74.5770 C.2    54  GLN54       0.2608
     14  OE1       16.0100   -1.0550   75.2170 O.2    54  GLN54      -0.2717
     15  NE2       14.2650   -2.1150   74.2840 N.am   54  GLN54      -0.0878
     16  N         18.5600    1.0850   67.5470 N.3   144  HIS144     -0.1241
     17  CA        17.8740    0.5830   66.3560 C.3   144  HIS144      0.1621
     18  C         18.5000    1.2950   65.1470 C.2   144  HIS144      0.2264
     19  O         18.8460    2.4710   65.2320 O.2   144  HIS144     -0.2867
     20  CB        16.3790    0.9120   66.4660 C.3   144  HIS144      0.0745
     21  CG        15.5220    0.2790   65.4090 C.ar  144  HIS144      0.0817
     22  ND1       15.8150   -0.9330   64.8240 N.ar  144  HIS144     -0.2268
     23  CD2       14.3380    0.6760   64.8790 C.ar  144  HIS144      0.1154
     24  CE1       14.8500   -1.2620   63.9810 C.ar  144  HIS144      0.1986
     25  NE2       13.9410   -0.3000   63.9980 N.ar  144  HIS144     -0.2212
     26  N         19.1070   -4.0370   72.2230 N.3   169  PRO169     -0.2102
     27  CA        18.6270   -5.1660   73.0220 C.3   169  PRO169      0.1504
     28  C         17.5910   -5.9400   72.2010 C.2   169  PRO169      0.2576
     29  O         16.6800   -5.3480   71.6100 O.2   169  PRO169     -0.2718
     30  CB        17.9700   -4.4780   74.2290 C.3   169  PRO169      0.0282
     31  CG        18.7590   -3.2060   74.3790 C.3   169  PRO169      0.0208
     32  CD        18.9290   -2.7580   72.9310 C.3   169  PRO169      0.0893
     33  N         17.7910   -7.2440   72.0910 N.am  170  LYS170     -0.1966
     34  CA        16.8780   -8.1080   71.3680 C.3   170  LYS170      0.1728
     35  C         15.8010   -8.5680   72.3650 C.2   170  LYS170      0.2617
     36  O         15.7200   -9.7380   72.7290 O.2   170  LYS170     -0.2715
     37  CB        17.6380   -9.2910   70.7560 C.3   170  LYS170      0.0311
     38  CG        18.7400   -8.9040   69.7440 C.3   170  LYS170      0.0038
     39  CD        18.1980   -8.3510   68.4160 C.3   170  LYS170      0.0206
     40  CE        18.2690   -6.8260   68.3530 C.3   170  LYS170      0.1093
     41  NZ        17.6960   -6.2670   67.0940 N.3   170  LYS170     -0.1314
     42  N         15.0440   -7.5920   72.8590 N.am  171  GLY171     -0.1940
     43  CA        13.9740   -7.8270   73.8160 C.3   171  GLY171      0.2014
     44  C         13.3740   -6.4950   74.2250 C.2   171  GLY171      0.2638
     45  O         14.0020   -5.4390   74.0650 O.2   171  GLY171     -0.2714
     46  N         12.1580   -6.5260   74.7640 N.am  172  MET172     -0.1976
     47  CA        11.4950   -5.2840   75.1690 C.3   172  MET172      0.1605
     48  C         12.2000   -4.6250   76.3580 C.2   172  MET172      0.2287
     49  O         12.7740   -5.3130   77.1990 O.2   172  MET172     -0.2864
     50  CB        10.0280   -5.5500   75.5140 C.3   172  MET172      0.0413
     51  CG         9.8220   -6.4920   76.6920 C.3   172  MET172      0.0598
     52  SD         8.1670   -6.2910   77.4010 S.3   172  MET172     -0.1393
     53  CE         7.1880   -7.1970   76.1490 C.3   172  MET172      0.0692
     54  N         15.2380   -6.4870   62.2950 N.3   233  ASP233     -0.1239
     55  CA        14.4560   -5.9870   63.4210 C.3   233  ASP233      0.1674
     56  C         13.0360   -5.5140   63.1150 C.2   233  ASP233      0.2266
     57  O         12.0720   -5.9500   63.7540 O.2   233  ASP233     -0.2867
     58  CB        15.2350   -4.8940   64.1220 C.3   233  ASP233      0.1410
     59  CG        14.6150   -4.5120   65.3730 C.2   233  ASP233      0.3668
     60  OD1       13.6400   -3.7560   65.3910 O.co2 233  ASP233     -0.2456
     61  OD2       15.0580   -4.9600   66.4240 O.co2 233  ASP233     -0.2456
     62  N          9.7070   -8.0350   64.3970 N.3   237  GLU237     -0.1245
     63  CA         8.5980   -7.6350   65.2530 C.3   237  GLU237      0.1567
     64  C          7.2700   -7.7800   64.5310 C.2   237  GLU237      0.2260
     65  O          6.2470   -8.0520   65.1540 O.2   237  GLU237     -0.2867
     66  CB         8.7920   -6.2170   65.7760 C.3   237  GLU237      0.0388
     67  CG         8.8340   -5.1260   64.7370 C.3   237  GLU237      0.1160
     68  CD         9.6770   -3.9860   65.1650 C.2   237  GLU237      0.3649
     69  OE1       10.5430   -4.2110   66.0060 O.co2 237  GLU237     -0.2457
     70  OE2        9.5070   -2.8540   64.7010 O.co2 237  GLU237     -0.2457
     71  N          7.7320  -12.3920   66.3400 N.3   241  LEU241     -0.1231
     72  CA         7.7690  -11.7430   67.6510 C.3   241  LEU241      0.1693
     73  C          6.4850  -11.1260   68.1770 C.2   241  LEU241      0.2591
     74  O          6.1740  -11.2870   69.3490 O.2   241  LEU241     -0.2718
     75  CB         8.9180  -10.7210   67.7480 C.3   241  LEU241      0.0284
     76  CG        10.3380  -11.2620   67.5310 C.3   241  LEU241      0.0019
     77  CD1       11.3270  -10.1550   67.7300 C.3   241  LEU241      0.0001
     78  CD2       10.6380  -12.4170   68.4660 C.3   241  LEU241      0.0001
     79  N          5.7800  -10.3770   67.3350 N.am  242  LEU242     -0.1980
     80  CA         4.5400   -9.7220   67.7470 C.3   242  LEU242      0.1596
     81  C          3.4030   -9.9190   66.7460 C.2   242  LEU242      0.2287
     82  O          2.4310  -10.6130   67.0340 O.2   242  LEU242     -0.2864
     83  CB         4.7610   -8.2130   67.9690 C.3   242  LEU242      0.0297
     84  CG         5.8220   -7.7330   68.9690 C.3   242  LEU242      0.0022
     85  CD1        5.8840   -6.2290   68.9720 C.3   242  LEU242      0.0001
     86  CD2        5.5240   -8.2490   70.3700 C.3   242  LEU242      0.0001
     87  N         16.4200  -12.7890   66.8660 N.3   410  GLU410     -0.1245
     88  CA        15.2190  -12.1540   66.3130 C.3   410  GLU410      0.1567
     89  C         14.0420  -13.1050   66.0260 C.2   410  GLU410      0.2260
     90  O         12.8940  -12.6670   65.9000 O.2   410  GLU410     -0.2867
     91  CB        15.5940  -11.4410   65.0050 C.3   410  GLU410      0.0388
     92  CG        14.5060  -10.5260   64.4290 C.3   410  GLU410      0.1160
     93  CD        14.3490   -9.2520   65.2280 C.2   410  GLU410      0.3649
     94  OE1       15.3360   -8.8040   65.8510 O.co2 410  GLU410     -0.2457
     95  OE2       13.2500   -8.6690   65.2250 O.co2 410  GLU410     -0.2457
     96  N         14.3480  -14.0830   71.5390 N.3   414  GLU414     -0.1245
     97  CA        13.5520  -12.9650   72.0000 C.3   414  GLU414      0.1567
     98  C         12.0990  -13.3460   72.2930 C.2   414  GLU414      0.2260
     99  O         11.5440  -12.9630   73.3250 O.2   414  GLU414     -0.2867
    100  CB        13.6120  -11.8210   71.0060 C.3   414  GLU414      0.0388
    101  CG        12.7480  -10.6840   71.4400 C.3   414  GLU414      0.1160
    102  CD        13.0460   -9.3940   70.7380 C.2   414  GLU414      0.3649
    103  OE1       14.0110   -9.3330   69.9470 O.co2 414  GLU414     -0.2457
    104  OE2       12.3340   -8.4170   71.0110 O.co2 414  GLU414     -0.2457
    105  N          9.6520  -11.6400   75.1840 N.3   419  LEU419     -0.1245
    106  CA         8.2790  -11.2890   74.8300 C.3   419  LEU419      0.1561
    107  C          7.0960  -12.1250   75.3310 C.2   419  LEU419      0.2260
    108  O          6.1920  -11.6030   75.9970 O.2   419  LEU419     -0.2867
    109  CB         8.2040  -11.1100   73.3040 C.3   419  LEU419      0.0270
    110  CG         9.2630  -10.1800   72.6920 C.3   419  LEU419      0.0019
    111  CD1        9.0740  -10.1320   71.1880 C.3   419  LEU419      0.0001
    112  CD2        9.1740   -8.7710   73.2870 C.3   419  LEU419      0.0001
    113  N          6.5710   -2.6690   73.7910 N.3   435  CYS435     -0.1221
    114  CA         7.6360   -2.5440   72.7930 C.3   435  CYS435      0.1808
    115  C          7.5300   -1.1320   72.2130 C.2   435  CYS435      0.2601
    116  O          6.6270   -0.3830   72.5910 O.2   435  CYS435     -0.2717
    117  CB         7.4750   -3.6010   71.6960 C.3   435  CYS435      0.0970
    118  SG         7.6920   -5.2920   72.2710 S.3   435  CYS435     -0.0800
    119  N          8.4270   -0.7740   71.2920 N.am  436  SER436     -0.1952
    120  CA         8.4530    0.5650   70.6980 C.3   436  SER436      0.1924
    121  C          7.2370    0.9070   69.8440 C.2   436  SER436      0.2314
    122  O          6.4720    0.0300   69.4470 O.2   436  SER436     -0.2863
    123  CB         9.7040    0.7460   69.8260 C.3   436  SER436      0.2116
    124  OG         9.5600    0.0380   68.6030 O.3   436  SER436     -0.2180
    125  N          7.3460    1.8380   66.7690 N.3   438  THR438     -0.1203
    126  CA         7.5450    1.1690   65.4830 C.3   438  THR438      0.1994
    127  C          7.0430   -0.2650   65.5410 C.2   438  THR438      0.2617
    128  O          6.4070   -0.7570   64.6020 O.2   438  THR438     -0.2717
    129  CB         9.0450    1.1750   65.0910 C.3   438  THR438      0.1784
    130  OG1        9.4940    2.5270   65.0260 O.3   438  THR438     -0.2211
    131  CG2        9.2810    0.4950   63.7390 C.3   438  THR438      0.0376
    132  N          7.3070   -0.9200   66.6660 N.am  439  ALA439     -0.1979
    133  CA         6.9070   -2.3030   66.8650 C.3   439  ALA439      0.1597
    134  C          5.3970   -2.4270   67.0310 C.2   439  ALA439      0.2287
    135  O          4.7760   -3.3490   66.4900 O.2   439  ALA439     -0.2864
    136  CB         7.6230   -2.8810   68.0620 C.3   439  ALA439      0.0319
@<TRIPOS>BOND
     1    54    55    1
     2    56    55    1
     3    56    57    2
     4    55    58    1
     5   131   129    1
     6    24    25   ar
     7    24    22   ar
     8    25    23   ar
     9    58    59    1
    10    62    63    1
    11    92    91    1
    12    92    93    1
    13    64    65    2
    14    64    63    1
    15   128   127    2
    16    70    68   ar
    17    67    68    1
    18    67    66    1
    19    22    21   ar
    20    23    21   ar
    21    91    88    1
    22   130   129    1
    23   129   126    1
    24    18    19    2
    25    18    17    1
    26    68    69   ar
    27    95    93   ar
    28    93    94   ar
    29    63    66    1
    30    59    60   ar
    31    59    61   ar
    32    21    20    1
    33   126   127    1
    34   126   125    1
    35   127   132   am
    36    90    89    2
    37    89    88    1
    38    88    87    1
    39    71    72    1
    40    17    20    1
    41    17    16    1
    42   135   134    2
    43   132   133    1
    44    81    82    2
    45    81    80    1
    46   133   134    1
    47   133   136    1
    48    41    40    1
    49    79    80    1
    50    79    73   am
    51    76    77    1
    52    76    75    1
    53    76    78    1
    54    72    75    1
    55    72    73    1
    56    80    83    1
    57    83    84    1
    58    73    74    2
    59    40    39    1
    60    39    38    1
    61   124   123    1
    62    84    85    1
    63    84    86    1
    64   122   121    2
    65    38    37    1
    66   123   120    1
    67   121   120    1
    68   103   102   ar
    69   120   119    1
    70   102   104   ar
    71   102   101    1
    72    37    34    1
    73   100   101    1
    74   100    97    1
    75   111   110    1
    76   119   115   am
    77    34    33    1
    78    34    35    1
    79    96    97    1
    80    29    28    2
    81   117   118    1
    82   117   114    1
    83    97    98    1
    84    33    28   am
    85    28    27    1
    86   115   116    2
    87   115   114    1
    88    26    32    1
    89    26    27    1
    90    98    99    2
    91    35    36    2
    92    35    42   am
    93   110   112    1
    94   110   109    1
    95   114   113    1
    96    42    43    1
    97    32    31    1
    98    27    30    1
    99   109   106    1
   100    43    44    1
   101    12    13    1
   102    12    11    1
   103    45    44    2
   104    44    46   am
   105    30    31    1
   106    15    13   am
   107    13    14    2
   108     6     5    1
   109    46    47    1
   110   106   105    1
   111   106   107    1
   112    11     8    1
   113    47    50    1
   114    47    48    1
   115   107   108    2
   116    50    51    1
   117     5     2    1
   118    53    52    1
   119     7     8    1
   120     7     3   am
   121     1     2    1
   122     8     9    1
   123    48    49    2
   124    51    52    1
   125     2     3    1
   126     3     4    2
   127     9    10    2
