@<TRIPOS>MOLECULE
tmp/1qmhB00.pdb
 94 87 0 0 0
SMALL
GASTEIGER

@<TRIPOS>ATOM
      1  N         37.5720  106.4620   30.3460 N.3    10  GLU10      -0.1245
      2  CA        37.8940  105.0490   30.4920 C.3    10  GLU10       0.1567
      3  C         38.5890  104.4480   29.2840 C.2    10  GLU10       0.2260
      4  O         39.4580  103.5660   29.3990 O.2    10  GLU10      -0.2867
      5  CB        36.6030  104.3520   30.9120 C.3    10  GLU10       0.0388
      6  CG        35.3920  104.2670   30.0210 C.3    10  GLU10       0.1160
      7  CD        35.5970  103.2660   28.8900 C.2    10  GLU10       0.3649
      8  OE1       36.2410  102.2200   29.1410 O.co2  10  GLU10      -0.2457
      9  OE2       35.1530  103.5180   27.7480 O.co2  10  GLU10      -0.2457
     10  N         37.1190  102.5780   26.4100 N.3    12  GLY12      -0.1210
     11  CA        36.7170  101.2730   25.9160 C.3    12  GLY12       0.1956
     12  C         35.4100  101.1640   25.1790 C.2    12  GLY12       0.2612
     13  O         34.8590  102.1180   24.6200 O.2    12  GLY12      -0.2717
     14  N         34.7980   99.9820   25.2500 N.am   13  GLY13      -0.1942
     15  CA        33.5220   99.7410   24.5990 C.3    13  GLY13       0.2014
     16  C         32.3810  100.5780   25.0730 C.2    13  GLY13       0.2638
     17  O         31.4120  100.7550   24.3290 O.2    13  GLY13      -0.2714
     18  N         32.4010  101.1000   26.3330 N.am   14  GLN14      -0.1977
     19  CA        31.2500  101.8430   26.8340 C.3    14  GLN14       0.1601
     20  C         30.9230  103.0520   25.9860 C.2    14  GLN14       0.2287
     21  O         29.7820  103.4590   25.7920 O.2    14  GLN14      -0.2864
     22  CB        31.4890  102.2830   28.3120 C.3    14  GLN14       0.0394
     23  CG        30.2750  102.8950   29.0030 C.3    14  GLN14       0.0908
     24  CD        30.4520  103.3860   30.4360 C.2    14  GLN14       0.2608
     25  OE1       31.5100  103.9000   30.8950 O.2    14  GLN14      -0.2717
     26  NE2       29.3940  103.2150   31.2570 N.am   14  GLN14      -0.0878
     27  N         29.2160  101.8760   22.7970 N.3    17  ARG17      -0.1301
     28  CA        27.7840  101.5080   23.0930 C.3    17  ARG17       0.1248
     29  C         26.9320  102.6670   23.4210 C.3    17  ARG17       0.2009
     30  O         25.7940  102.7980   22.8380 O.3    17  ARG17      -0.2188
     31  CB        27.7010  100.3040   24.0260 C.3    17  ARG17       0.0254
     32  CG        28.2880   99.0460   23.3850 C.3    17  ARG17       0.0485
     33  CD        28.2160   97.8390   24.3550 C.3    17  ARG17       0.2205
     34  NE        28.8050   98.3750   25.5760 N.pl3  17  ARG17      -0.0865
     35  CZ        30.0400   98.1060   26.0000 C.cat  17  ARG17       0.5346
     36  NH1       30.7560   97.2190   25.3080 N.pl3  17  ARG17       0.1354
     37  NH2       30.4450   98.7050   27.1120 N.pl3  17  ARG17       0.1354
     38  N         39.1010  101.8800   21.6090 N.3    36  ARG36      -0.1245
     39  CA        39.9300  100.9690   22.4490 C.3    36  ARG36       0.1563
     40  C         41.3720  101.0440   22.0370 C.2    36  ARG36       0.2260
     41  O         42.0630  100.0390   22.0110 O.2    36  ARG36      -0.2867
     42  CB        39.3430   99.5580   22.3490 C.3    36  ARG36       0.0307
     43  CG        37.9140   99.5400   22.8720 C.3    36  ARG36       0.0489
     44  CD        37.0720   98.3190   22.7800 C.3    36  ARG36       0.2205
     45  NE        37.7050   97.1950   23.4050 N.pl3  36  ARG36      -0.0865
     46  CZ        38.7040   96.4220   23.0750 C.cat  36  ARG36       0.5346
     47  NH1       39.3610   96.5580   21.8900 N.pl3  36  ARG36       0.1354
     48  NH2       39.0840   95.4890   23.9480 N.pl3  36  ARG36       0.1354
     49  N         44.1800   99.0440   24.4810 N.3    39  ARG39      -0.1245
     50  CA        43.9380   97.6500   24.8410 C.3    39  ARG39       0.1563
     51  C         44.8430   96.5980   24.2520 C.2    39  ARG39       0.2260
     52  O         45.5890   96.7410   23.2760 O.2    39  ARG39      -0.2867
     53  CB        42.4630   97.3330   24.5600 C.3    39  ARG39       0.0307
     54  CG        41.5140   98.2990   25.2710 C.3    39  ARG39       0.0489
     55  CD        41.5750   98.2050   26.8030 C.3    39  ARG39       0.2205
     56  NE        40.4630   98.8800   27.4300 N.pl3  39  ARG39      -0.0865
     57  CZ        40.2100  100.0460   27.9740 C.cat  39  ARG39       0.5346
     58  NH1       41.0690  101.0450   28.1560 N.pl3  39  ARG39       0.1354
     59  NH2       38.9790  100.3050   28.4110 N.pl3  39  ARG39       0.1354
     60  N         36.0410   94.5870   18.5270 N.3    45  LEU45      -0.1245
     61  CA        36.1730   93.1660   18.7270 C.3    45  LEU45       0.1561
     62  C         34.8170   92.5740   18.3220 C.2    45  LEU45       0.2260
     63  O         33.9170   93.3670   18.0110 O.2    45  LEU45      -0.2867
     64  CB        36.5160   92.7250   20.1670 C.3    45  LEU45       0.0270
     65  CG        37.8860   93.1490   20.7080 C.3    45  LEU45       0.0019
     66  CD1       38.2130   92.5090   22.0580 C.3    45  LEU45       0.0001
     67  CD2       38.9960   92.8520   19.7210 C.3    45  LEU45       0.0001
     68  N         32.2960   91.1290   19.9430 N.3    47  GLN47      -0.1231
     69  CA        31.2030   91.6270   20.7730 C.3    47  GLN47       0.1698
     70  C         30.8480   93.0290   20.3720 C.2    47  GLN47       0.2592
     71  O         29.6540   93.3440   20.2430 O.2    47  GLN47      -0.2718
     72  CB        31.5490   91.4260   22.2780 C.3    47  GLN47       0.0381
     73  CG        31.8240   92.6800   23.0830 C.3    47  GLN47       0.0905
     74  CD        32.8980   92.7530   24.1500 C.2    47  GLN47       0.2608
     75  OE1       32.6530   92.8140   25.3890 O.2    47  GLN47      -0.2717
     76  NE2       34.1950   92.7530   23.7550 N.am   47  GLN47      -0.0878
     77  N         31.8280   93.9140   20.1230 N.am   48  HIS48      -0.1976
     78  CA        31.4930   95.2840   19.7300 C.3    48  HIS48       0.1656
     79  C         30.7570   95.2660   18.3880 C.2    48  HIS48       0.2291
     80  O         29.7860   95.9890   18.1600 O.2    48  HIS48      -0.2864
     81  CB        32.7160   96.2040   19.6880 C.3    48  HIS48       0.0771
     82  CG        33.4970   96.1280   20.9820 C.ar   48  HIS48       0.0820
     83  ND1       34.7300   95.4870   21.0630 N.ar   48  HIS48      -0.2267
     84  CD2       33.1830   96.5370   22.2380 C.ar   48  HIS48       0.1154
     85  CE1       35.1660   95.5150   22.3150 C.ar   48  HIS48       0.1986
     86  NE2       34.2610   96.1470   23.0150 N.ar   48  HIS48      -0.2212
     87  N         25.2840   93.8520   27.4040 N.3    97  LEU97      -0.1245
     88  CA        25.9050   94.8810   26.5290 C.3    97  LEU97       0.1561
     89  C         25.1890   95.0780   25.1980 C.2    97  LEU97       0.2260
     90  O         25.0970   96.2480   24.7770 O.2    97  LEU97      -0.2867
     91  CB        27.4030   94.6370   26.3240 C.3    97  LEU97       0.0270
     92  CG        28.1880   94.5490   27.6970 C.3    97  LEU97       0.0019
     93  CD1       29.6670   94.3280   27.4290 C.3    97  LEU97       0.0001
     94  CD2       28.0200   95.7370   28.5940 C.3    97  LEU97       0.0001
@<TRIPOS>BOND
     1    63    62    2
     2    80    79    2
     3    62    61    1
     4    79    78    1
     5    60    61    1
     6    61    64    1
     7    81    78    1
     8    81    82    1
     9    67    65    1
    10    78    77    1
    11    68    69    1
    12    77    70   am
    13    64    65    1
    14    71    70    2
    15    70    69    1
    16    65    66    1
    17    69    72    1
    18    82    83   ar
    19    82    84   ar
    20    83    85   ar
    21    38    39    1
    22    47    46    1
    23    41    40    2
    24    40    39    1
    25    84    86   ar
    26    72    73    1
    27    85    86   ar
    28    42    39    1
    29    42    43    1
    30    44    43    1
    31    44    45    1
    32    27    28    1
    33    30    29    1
    34    46    45    2
    35    46    48    1
    36    73    74    1
    37    28    29    1
    38    28    31    1
    39    52    51    2
    40    32    31    1
    41    32    33    1
    42    76    74   am
    43    74    75    2
    44    51    50    1
    45    17    16    2
    46    33    34    1
    47    49    50    1
    48    53    50    1
    49    53    54    1
    50    15    16    1
    51    15    14    1
    52    13    12    2
    53    90    89    2
    54    16    18   am
    55    12    14   am
    56    12    11    1
    57    89    88    1
    58    54    55    1
    59    36    35    1
    60    34    35    2
    61    21    20    2
    62    11    10    1
    63    20    19    1
    64    35    37    1
    65    91    88    1
    66    91    92    1
    67    18    19    1
    68    88    87    1
    69    55    56    1
    70    19    22    1
    71    93    92    1
    72    56    57    2
    73    92    94    1
    74     9     7   ar
    75    57    58    1
    76    57    59    1
    77    22    23    1
    78     7     8   ar
    79     7     6    1
    80    23    24    1
    81     3     4    2
    82     3     2    1
    83     6     5    1
    84     1     2    1
    85    24    25    2
    86    24    26   am
    87     2     5    1
