@<TRIPOS>MOLECULE
tmp/1qmhB01.pdb
 125 122 0 0 0
SMALL
GASTEIGER

@<TRIPOS>ATOM
      1  N         26.3160   80.6810   32.2070 N.3   156  PHE156     -0.1227
      2  CA        27.3340   81.0530   33.2040 C.3   156  PHE156      0.1736
      3  C         28.7690   81.0460   32.6320 C.2   156  PHE156      0.2595
      4  O         29.2210   79.9820   32.1820 O.2   156  PHE156     -0.2718
      5  CB        27.3540   80.0670   34.3740 C.3   156  PHE156      0.0547
      6  CG        26.1450   80.2100   35.2280 C.ar  156  PHE156     -0.0202
      7  CD1       26.1600   81.1100   36.3130 C.ar  156  PHE156     -0.0042
      8  CD2       25.0340   79.4170   34.9800 C.ar  156  PHE156     -0.0042
      9  CE1       25.0360   81.2770   37.0970 C.ar  156  PHE156     -0.0003
     10  CE2       23.9140   79.6410   35.7560 C.ar  156  PHE156     -0.0003
     11  CZ        23.8990   80.5520   36.7950 C.ar  156  PHE156     -0.0000
     12  N         29.4470   82.1790   32.6900 N.am  157  TYR157     -0.1963
     13  CA        30.8370   82.2790   32.2270 C.3   157  TYR157      0.1756
     14  C         31.6380   81.0980   32.7140 C.2   157  TYR157      0.2461
     15  O         31.5010   80.7560   33.8770 O.2   157  TYR157     -0.2730
     16  CB        31.4370   83.5470   32.8160 C.3   157  TYR157      0.0574
     17  CG        32.7650   83.8450   32.1520 C.ar  157  TYR157     -0.0198
     18  CD1       33.9530   83.3140   32.6150 C.ar  157  TYR157     -0.0009
     19  CD2       32.8000   84.6770   31.0390 C.ar  157  TYR157     -0.0009
     20  CE1       35.1420   83.6030   31.9710 C.ar  157  TYR157      0.0417
     21  CE2       33.9860   84.9830   30.4070 C.ar  157  TYR157      0.0417
     22  CZ        35.1490   84.4400   30.8780 C.ar  157  TYR157      0.1957
     23  OH        36.3440   84.7300   30.2440 O.3   157  TYR157     -0.2866
     24  N         32.4920   80.5050   31.9260 N.am  158  PRO158     -0.2727
     25  CA        32.8280   80.9250   30.5890 C.3   158  PRO158      0.1402
     26  C         31.9450   80.4350   29.4640 C.2   158  PRO158      0.2269
     27  O         32.3560   80.5150   28.3050 O.2   158  PRO158     -0.2865
     28  CB        34.2210   80.2800   30.4390 C.3   158  PRO158      0.0296
     29  CG        34.0500   78.9340   31.0780 C.3   158  PRO158      0.0237
     30  CD        33.2580   79.2710   32.3200 C.3   158  PRO158      0.0939
     31  N         25.8160   72.4070   40.8980 N.3   197  VAL197     -0.1245
     32  CA        26.6540   72.7150   42.0660 C.3   197  VAL197      0.1561
     33  C         25.8140   72.2610   43.2620 C.2   197  VAL197      0.2260
     34  O         24.5880   72.3660   43.3560 O.2   197  VAL197     -0.2867
     35  CB        27.0080   74.2050   42.1010 C.3   197  VAL197      0.0252
     36  CG1       27.5660   74.7210   43.4340 C.3   197  VAL197      0.0019
     37  CG2       27.9660   74.6030   40.9990 C.3   197  VAL197      0.0019
     38  N         26.5510   74.1080   48.9370 N.3   201  VAL201     -0.1245
     39  CA        27.1590   75.3710   48.5700 C.3   201  VAL201      0.1561
     40  C         26.1420   76.4890   48.7400 C.2   201  VAL201      0.2260
     41  O         26.4430   77.5780   49.2130 O.2   201  VAL201     -0.2867
     42  CB        27.6360   75.3910   47.0980 C.3   201  VAL201      0.0252
     43  CG1       28.1480   76.7370   46.5750 C.3   201  VAL201      0.0019
     44  CG2       28.7360   74.3390   46.8840 C.3   201  VAL201      0.0019
     45  N         26.2450   79.5250   51.5380 N.3   205  GLU205     -0.1301
     46  CA        26.1880   80.9050   51.0950 C.3   205  GLU205      0.1252
     47  C         25.0760   81.6310   51.8260 C.3   205  GLU205      0.2009
     48  O         25.3480   82.7900   52.1360 O.3   205  GLU205     -0.2188
     49  CB        26.0290   81.0800   49.5390 C.3   205  GLU205      0.0335
     50  CG        27.2960   80.6180   48.8440 C.3   205  GLU205      0.1156
     51  CD        27.2620   80.3840   47.3280 C.2   205  GLU205      0.3649
     52  OE1       26.1600   80.2720   46.7630 O.co2 205  GLU205     -0.2457
     53  OE2       28.3730   80.3510   46.7470 O.co2 205  GLU205     -0.2457
     54  N         28.2000   74.4420   34.7650 N.3   229  PRO229     -0.2102
     55  CA        28.1730   74.8660   36.1420 C.3   229  PRO229      0.1504
     56  C         28.0630   76.3360   36.3850 C.2   229  PRO229      0.2576
     57  O         28.4290   77.1930   35.5890 O.2   229  PRO229     -0.2718
     58  CB        29.4520   74.2070   36.6910 C.3   229  PRO229      0.0282
     59  CG        30.3860   74.4910   35.5040 C.3   229  PRO229      0.0208
     60  CD        29.5420   73.9180   34.3860 C.3   229  PRO229      0.0893
     61  N         27.3160   76.7180   37.4490 N.am  230  GLY230     -0.1943
     62  CA        27.1720   78.1350   37.7670 C.3   230  GLY230      0.2014
     63  C         26.6220   78.3610   39.1690 C.2   230  GLY230      0.2638
     64  O         25.8240   77.5390   39.6570 O.2   230  GLY230     -0.2714
     65  N         26.9040   79.5170   39.7370 N.am  231  ASN231     -0.1972
     66  CA        26.3770   79.8290   41.1080 C.3   231  ASN231      0.1688
     67  C         26.4160   81.3440   41.2660 C.2   231  ASN231      0.2292
     68  O         27.4850   81.9080   41.1110 O.2   231  ASN231     -0.2864
     69  CB        27.2050   79.1130   42.1380 C.3   231  ASN231      0.1181
     70  CG        26.9950   79.5580   43.6220 C.2   231  ASN231      0.2629
     71  OD1       25.9380   79.9660   44.0930 O.2   231  ASN231     -0.2716
     72  ND2       28.1190   79.5090   44.2850 N.am  231  ASN231     -0.0877
     73  N         29.8600   83.1080   41.3840 N.3   250  GLY250     -0.1210
     74  CA        30.9500   82.3310   41.9510 C.3   250  GLY250      0.1956
     75  C         31.8720   81.8950   40.8360 C.2   250  GLY250      0.2612
     76  O         31.4070   81.5660   39.7690 O.2   250  GLY250     -0.2717
     77  N         33.1490   81.9140   41.1240 N.am  251  GLU251     -0.1965
     78  CA        34.2290   81.5940   40.2020 C.3   251  GLU251      0.1733
     79  C         34.5410   80.1180   40.4120 C.2   251  GLU251      0.2616
     80  O         34.3630   79.6090   41.5240 O.2   251  GLU251     -0.2715
     81  CB        35.4600   82.4080   40.5540 C.3   251  GLU251      0.0429
     82  CG        36.5760   82.5670   39.5630 C.3   251  GLU251      0.1163
     83  CD        36.7020   84.0060   39.0610 C.2   251  GLU251      0.3649
     84  OE1       35.7160   84.7610   39.1630 O.co2 251  GLU251     -0.2457
     85  OE2       37.7780   84.4170   38.5790 O.co2 251  GLU251     -0.2457
     86  N         35.0480   79.5300   39.3390 N.am  252  LYS252     -0.1963
     87  CA        35.3800   78.1010   39.3570 C.3   252  LYS252      0.1728
     88  C         35.8680   77.5420   40.6910 C.2   252  LYS252      0.2616
     89  O         35.0590   76.8350   41.3240 O.2   252  LYS252     -0.2715
     90  CB        36.3580   77.7700   38.2150 C.3   252  LYS252      0.0311
     91  CG        37.1940   78.9480   37.7520 C.3   252  LYS252      0.0038
     92  CD        38.6920   78.7140   37.5990 C.3   252  LYS252      0.0206
     93  CE        39.4140   80.0250   37.9280 C.3   252  LYS252      0.1093
     94  NZ        40.8580   80.1190   37.5900 N.3   252  LYS252     -0.1314
     95  N         37.1100   77.7300   41.1460 N.am  253  ARG253     -0.1963
     96  CA        37.4970   77.0980   42.4220 C.3   253  ARG253      0.1729
     97  C         37.5850   78.1150   43.5610 C.2   253  ARG253      0.2616
     98  O         38.6580   78.5870   43.9750 O.2   253  ARG253     -0.2715
     99  CB        38.7990   76.3350   42.2670 C.3   253  ARG253      0.0348
    100  CG        38.9990   75.2450   43.3300 C.3   253  ARG253      0.0492
    101  CD        38.3740   73.8930   43.0170 C.3   253  ARG253      0.2205
    102  NE        38.9990   73.2510   41.8540 N.pl3 253  ARG253     -0.0865
    103  CZ        38.5380   73.4140   40.6330 C.cat 253  ARG253      0.5346
    104  NH1       37.4770   74.1830   40.4790 N.pl3 253  ARG253      0.1354
    105  NH2       39.0910   72.8450   39.5610 N.pl3 253  ARG253      0.1354
    106  N         36.4180   78.5740   44.0230 N.am  254  VAL254     -0.1963
    107  CA        36.2570   79.5710   45.0440 C.3   254  VAL254      0.1727
    108  C         35.1900   79.0600   46.0170 C.2   254  VAL254      0.2616
    109  O         34.0590   78.6870   45.7110 O.2   254  VAL254     -0.2715
    110  CB        35.8780   80.9720   44.5450 C.3   254  VAL254      0.0290
    111  CG1       35.7430   81.9760   45.6850 C.3   254  VAL254      0.0023
    112  CG2       36.8650   81.5470   43.5500 C.3   254  VAL254      0.0023
    113  N         35.5780   78.9680   47.2660 N.am  255  SER255     -0.1950
    114  CA        34.7210   78.5440   48.3470 C.3   255  SER255      0.1924
    115  C         33.3970   79.3080   48.3980 C.2   255  SER255      0.2314
    116  O         33.2520   80.5020   48.0960 O.2   255  SER255     -0.2863
    117  CB        35.5130   78.8020   49.6530 C.3   255  SER255      0.2116
    118  OG        34.7560   78.6180   50.8330 O.3   255  SER255     -0.2180
    119  N         32.7160   83.2230   48.4280 N.3   259  VAL259     -0.1245
    120  CA        31.8410   83.8960   47.4420 C.3   259  VAL259      0.1561
    121  C         30.9430   84.8390   48.2260 C.2   259  VAL259      0.2260
    122  O         30.7330   86.0040   48.0170 O.2   259  VAL259     -0.2867
    123  CB        31.0380   82.8290   46.6290 C.3   259  VAL259      0.0252
    124  CG1       29.8590   83.4730   45.9060 C.3   259  VAL259      0.0019
    125  CG2       31.9940   82.1600   45.6060 C.3   259  VAL259      0.0019
@<TRIPOS>BOND
     1    27    26    2
     2    26    25    1
     3    23    22    1
     4    21    22   ar
     5    21    19   ar
     6    28    25    1
     7    28    29    1
     8    25    24    1
     9    22    20   ar
    10    19    17   ar
    11    29    30    1
    12    24    30    1
    13    24    14   am
    14    20    18   ar
    15    17    18   ar
    16    17    16    1
    17     4     3    2
    18     1     2    1
    19    13    12    1
    20    13    14    1
    21    13    16    1
    22     3    12   am
    23     3     2    1
    24    14    15    2
    25     2     5    1
    26     5     6    1
    27    60    54    1
    28    60    59    1
    29    54    55    1
    30     8     6   ar
    31     8    10   ar
    32     6     7   ar
    33    59    58    1
    34    57    56    2
    35    10    11   ar
    36    55    56    1
    37    55    58    1
    38     7     9   ar
    39    56    61   am
    40    11     9   ar
    41    61    62    1
    42    94    93    1
    43    92    91    1
    44    92    93    1
    45    91    90    1
    46    62    63    1
    47    90    87    1
    48    85    83   ar
    49    83    84   ar
    50    83    82    1
    51    63    64    2
    52    63    65   am
    53    86    87    1
    54    86    79   am
    55    87    88    1
    56   105   103    1
    57    82    81    1
    58    65    66    1
    59    76    75    2
    60    78    79    1
    61    78    81    1
    62    78    77    1
    63    79    80    2
    64   104   103    1
    65   103   102    2
    66    88    95   am
    67    88    89    2
    68    75    77   am
    69    75    74    1
    70    31    32    1
    71    37    35    1
    72    66    67    1
    73    66    69    1
    74    68    67    2
    75    95    96    1
    76    73    74    1
    77   102   101    1
    78    32    35    1
    79    32    33    1
    80    35    36    1
    81    69    70    1
    82    99    96    1
    83    99   100    1
    84    96    97    1
    85   101   100    1
    86    33    34    2
    87   112   110    1
    88    97    98    2
    89    97   106   am
    90    70    71    2
    91    70    72   am
    92   106   107    1
    93   110   107    1
    94   110   111    1
    95   107   108    1
    96   125   123    1
    97   109   108    2
    98   124   123    1
    99   108   113   am
   100    43    42    1
   101   123   120    1
   102    53    51   ar
   103    52    51   ar
   104    44    42    1
   105    42    39    1
   106   113   114    1
   107    51    50    1
   108   120   121    1
   109   120   119    1
   110   122   121    2
   111   116   115    2
   112   114   115    1
   113   114   117    1
   114    39    40    1
   115    39    38    1
   116    40    41    2
   117    50    49    1
   118    49    46    1
   119   117   118    1
   120    46    45    1
   121    46    47    1
   122    47    48    1
