@<TRIPOS>MOLECULE
tmp/1qmqA01.pdb
 181 174 0 0 0
SMALL
GASTEIGER

@<TRIPOS>ATOM
      1  N         15.0420    3.7540   23.1040 N.3    21  TYR21      -0.1241
      2  CA        14.1820    2.6000   23.3180 C.3    21  TYR21       0.1605
      3  C         14.8250    1.4910   24.1390 C.2    21  TYR21       0.2264
      4  O         14.1580    0.5300   24.5240 O.2    21  TYR21      -0.2867
      5  CB        13.6900    2.0730   21.9780 C.3    21  TYR21       0.0534
      6  CG        12.7670    3.0370   21.2650 C.ar   21  TYR21      -0.0201
      7  CD1       11.4830    3.2810   21.7490 C.ar   21  TYR21      -0.0009
      8  CD2       13.1660    3.6870   20.0960 C.ar   21  TYR21      -0.0009
      9  CE1       10.6170    4.1490   21.0930 C.ar   21  TYR21       0.0417
     10  CE2       12.3030    4.5550   19.4270 C.ar   21  TYR21       0.0417
     11  CZ        11.0320    4.7790   19.9360 C.ar   21  TYR21       0.1957
     12  OH        10.1690    5.6370   19.2980 O.3    21  TYR21      -0.2866
     13  N          7.7770   11.6450   15.8340 N.3    79  PHE79      -0.1227
     14  CA         8.3440   10.4110   16.3750 C.3    79  PHE79       0.1736
     15  C          9.5830    9.8680   15.6600 C.2    79  PHE79       0.2595
     16  O          9.7640   10.0490   14.4630 O.2    79  PHE79      -0.2718
     17  CB         7.2630    9.3250   16.4410 C.3    79  PHE79       0.0547
     18  CG         5.9780    9.7790   17.0870 C.ar   79  PHE79      -0.0202
     19  CD1        5.9860   10.4170   18.3260 C.ar   79  PHE79      -0.0042
     20  CD2        4.7600    9.5840   16.4450 C.ar   79  PHE79      -0.0042
     21  CE1        4.8000   10.8550   18.9130 C.ar   79  PHE79      -0.0003
     22  CE2        3.5710   10.0190   17.0240 C.ar   79  PHE79      -0.0003
     23  CZ         3.5900   10.6540   18.2580 C.ar   79  PHE79      -0.0000
     24  N         10.4190    9.1700   16.4200 N.am   80  ILE80      -0.1966
     25  CA        11.6520    8.5740   15.9180 C.3    80  ILE80       0.1712
     26  C         11.5430    7.0420   15.9320 C.2    80  ILE80       0.2458
     27  O         11.1550    6.4560   16.9340 O.2    80  ILE80      -0.2730
     28  CB        12.8440    9.0270   16.7920 C.3    80  ILE80       0.0289
     29  CG1       13.2020   10.4750   16.4600 C.3    80  ILE80       0.0022
     30  CG2       14.0370    8.0950   16.6240 C.3    80  ILE80       0.0023
     31  CD1       14.0070   11.1710   17.5240 C.3    80  ILE80       0.0001
     32  N         11.8590    6.3780   14.8080 N.am   81  PRO81      -0.2727
     33  CA        12.2950    6.9790   13.5530 C.3    81  PRO81       0.1402
     34  C         11.1630    7.5170   12.6900 C.2    81  PRO81       0.2269
     35  O          9.9930    7.2230   12.9190 O.2    81  PRO81      -0.2865
     36  CB        13.0050    5.8140   12.8650 C.3    81  PRO81       0.0296
     37  CG        12.1940    4.6800   13.2460 C.3    81  PRO81       0.0237
     38  CD        12.0170    4.9150   14.7320 C.3    81  PRO81       0.0939
     39  N          7.2340    6.3010   11.1590 N.3    84  ALA84      -0.1245
     40  CA         6.2730    6.0750   12.2310 C.3    84  ALA84       0.1562
     41  C          5.6260    7.4290   12.5150 C.2    84  ALA84       0.2260
     42  O          4.4470    7.5210   12.8370 O.2    84  ALA84      -0.2867
     43  CB         6.9740    5.5430   13.4750 C.3    84  ALA84       0.0290
     44  N          1.3990    8.0680   11.3190 N.3    88  TYR88      -0.1241
     45  CA         0.4680    8.5380   12.3500 C.3    88  TYR88       0.1605
     46  C         -0.3960    9.7360   11.8970 C.2    88  TYR88       0.2264
     47  O          0.1220   10.6690   11.2840 O.2    88  TYR88      -0.2867
     48  CB         1.3400    8.8890   13.5570 C.3    88  TYR88       0.0534
     49  CG         0.6800    9.5050   14.7530 C.ar   88  TYR88      -0.0201
     50  CD1        0.4090   10.8700   14.7910 C.ar   88  TYR88      -0.0009
     51  CD2        0.4390    8.7520   15.8980 C.ar   88  TYR88      -0.0009
     52  CE1       -0.0710   11.4730   15.9350 C.ar   88  TYR88       0.0417
     53  CE2       -0.0410    9.3470   17.0490 C.ar   88  TYR88       0.0417
     54  CZ        -0.2920   10.7100   17.0630 C.ar   88  TYR88       0.1957
     55  OH        -0.7460   11.3260   18.2060 O.3    88  TYR88      -0.2866
     56  N         -3.2900   11.2160   14.1270 N.3    90  PHE90      -0.1241
     57  CA        -4.0110   11.9100   15.2030 C.3    90  PHE90       0.1605
     58  C         -3.8740   13.4380   15.2000 C.2    90  PHE90       0.2264
     59  O         -2.7960   13.9810   14.9540 O.2    90  PHE90      -0.2867
     60  CB        -3.6150   11.3530   16.5750 C.3    90  PHE90       0.0534
     61  CG        -4.1060    9.9500   16.8360 C.ar   90  PHE90      -0.0203
     62  CD1       -5.2410    9.4570   16.1960 C.ar   90  PHE90      -0.0042
     63  CD2       -3.4350    9.1230   17.7310 C.ar   90  PHE90      -0.0042
     64  CE1       -5.6970    8.1640   16.4460 C.ar   90  PHE90      -0.0003
     65  CE2       -3.8820    7.8280   17.9870 C.ar   90  PHE90      -0.0003
     66  CZ        -5.0170    7.3470   17.3430 C.ar   90  PHE90      -0.0000
     67  N         -1.7270   16.6650   17.1490 N.3    93  THR93      -0.1218
     68  CA        -0.3300   16.3450   17.4440 C.3    93  THR93       0.1862
     69  C          0.6520   16.5750   16.2950 C.2    93  THR93       0.2287
     70  O          1.7900   16.9810   16.5240 O.2    93  THR93      -0.2866
     71  CB        -0.1780   14.8790   17.9210 C.3    93  THR93       0.1770
     72  OG1       -1.4100   14.1750   17.7330 O.3    93  THR93      -0.2211
     73  CG2        0.2030   14.8250   19.3820 C.3    93  THR93       0.0375
     74  N         -1.8840   -0.2750   19.9770 N.3   176  MET176     -0.1230
     75  CA        -1.2480    0.8700   19.3330 C.3   176  MET176      0.1702
     76  C          0.1030    1.2180   19.9420 C.2   176  MET176      0.2593
     77  O          0.9540    1.8110   19.2750 O.2   176  MET176     -0.2718
     78  CB        -2.1510    2.0950   19.4240 C.3   176  MET176      0.0401
     79  CG        -3.4410    1.9770   18.6620 C.3   176  MET176      0.0596
     80  SD        -4.4950    3.3720   19.0290 S.3   176  MET176     -0.1393
     81  CE        -5.7930    3.1140   17.8740 C.3   176  MET176      0.0692
     82  N          0.2950    0.8550   21.2070 N.am  177  THR177     -0.1939
     83  CA         1.5390    1.1580   21.9070 C.3   177  THR177      0.2028
     84  C          2.2680   -0.0490   22.5090 C.2   177  THR177      0.2642
     85  O          3.4380    0.0580   22.8820 O.2   177  THR177     -0.2714
     86  CB         1.3030    2.2140   23.0100 C.3   177  THR177      0.1808
     87  OG1        0.3190    1.7300   23.9340 O.3   177  THR177     -0.2208
     88  CG2        0.8110    3.5250   22.4030 C.3   177  THR177      0.0379
     89  N          1.5750   -1.1830   22.6040 N.am  178  ARG178     -0.1963
     90  CA         2.1360   -2.4280   23.1470 C.3   178  ARG178      0.1714
     91  C          1.5230   -3.6480   22.4470 C.2   178  ARG178      0.2458
     92  O          0.9440   -4.5180   23.1000 O.2   178  ARG178     -0.2730
     93  CB         1.8450   -2.5450   24.6480 C.3   178  ARG178      0.0347
     94  CG         2.7140   -1.7170   25.5690 C.3   178  ARG178      0.0492
     95  CD         2.1980   -1.8260   26.9950 C.3   178  ARG178      0.2205
     96  NE         0.8270   -1.3290   27.1020 N.pl3 178  ARG178     -0.0865
     97  CZ         0.5010   -0.0410   27.1240 C.cat 178  ARG178      0.5346
     98  NH1        1.4450    0.8850   27.0560 N.pl3 178  ARG178      0.1354
     99  NH2       -0.7730    0.3220   27.1820 N.pl3 178  ARG178      0.1354
    100  N          1.6830   -3.7510   21.1190 N.am  179  PRO179     -0.2727
    101  CA         1.1400   -4.8650   20.3320 C.3   179  PRO179      0.1402
    102  C          1.6010   -6.2720   20.6900 C.2   179  PRO179      0.2269
    103  O          2.7910   -6.5200   20.9010 O.2   179  PRO179     -0.2865
    104  CB         1.5730   -4.5080   18.9150 C.3   179  PRO179      0.0296
    105  CG         2.8920   -3.8830   19.1590 C.3   179  PRO179      0.0237
    106  CD         2.5180   -2.9050   20.2520 C.3   179  PRO179      0.0939
    107  N         -0.5620   -1.4780   13.7070 N.3   185  PHE185     -0.1241
    108  CA        -0.9870   -0.1600   14.1800 C.3   185  PHE185      0.1605
    109  C         -2.1720    0.3610   13.3720 C.2   185  PHE185      0.2264
    110  O         -3.1360    0.8790   13.9370 O.2   185  PHE185     -0.2867
    111  CB         0.1600    0.8470   14.1060 C.3   185  PHE185      0.0534
    112  CG        -0.1800    2.1960   14.6810 C.ar  185  PHE185     -0.0203
    113  CD1       -0.0560    2.4370   16.0460 C.ar  185  PHE185     -0.0042
    114  CD2       -0.6480    3.2190   13.8620 C.ar  185  PHE185     -0.0042
    115  CE1       -0.3940    3.6780   16.5880 C.ar  185  PHE185     -0.0003
    116  CE2       -0.9900    4.4610   14.3920 C.ar  185  PHE185     -0.0003
    117  CZ        -0.8640    4.6900   15.7580 C.ar  185  PHE185     -0.0000
    118  N         -7.0530   10.9580   19.5920 N.3   236  LEU236     -0.1245
    119  CA        -5.9730   11.4990   20.4100 C.3   236  LEU236      0.1561
    120  C         -6.4450   11.7730   21.8360 C.2   236  LEU236      0.2260
    121  O         -5.6960   11.5690   22.7900 O.2   236  LEU236     -0.2867
    122  CB        -5.3930   12.7710   19.7960 C.3   236  LEU236      0.0270
    123  CG        -4.1720   13.2870   20.5680 C.3   236  LEU236      0.0019
    124  CD1       -3.0910   12.2150   20.6200 C.3   236  LEU236      0.0001
    125  CD2       -3.6410   14.5490   19.9290 C.3   236  LEU236      0.0001
    126  N         -6.2180    8.1740   23.4880 N.3   239  VAL239     -0.1231
    127  CA        -4.8630    7.6840   23.7390 C.3   239  VAL239      0.1692
    128  C         -3.9700    8.6270   24.5440 C.2   239  VAL239      0.2592
    129  O         -3.1520    8.1700   25.3380 O.2   239  VAL239     -0.2718
    130  CB        -4.1460    7.3010   22.4230 C.3   239  VAL239      0.0266
    131  CG1       -4.9860    6.3010   21.6390 C.3   239  VAL239      0.0020
    132  CG2       -3.8650    8.5320   21.5890 C.3   239  VAL239      0.0020
    133  N         -4.1640    9.9340   24.3810 N.am  240  GLY240     -0.1957
    134  CA        -3.3480   10.9070   25.0880 C.3   240  GLY240      0.1869
    135  C         -3.3270   10.8180   26.6020 C.2   240  GLY240      0.2309
    136  O         -2.3040   11.1110   27.2290 O.2   240  GLY240     -0.2863
    137  N         -1.5340    5.9000   28.4850 N.3   243  ASP243     -0.1225
    138  CA        -0.1720    5.5050   28.8530 C.3   243  ASP243      0.1805
    139  C          0.5730    6.5100   29.7200 C.2   243  ASP243      0.2598
    140  O          1.3000    6.1220   30.6350 O.2   243  ASP243     -0.2718
    141  CB         0.6550    5.1630   27.6140 C.3   243  ASP243      0.1424
    142  CG         0.2630    3.8320   26.9970 C.2   243  ASP243      0.3668
    143  OD1       -0.6760    3.1730   27.4960 O.co2 243  ASP243     -0.2456
    144  OD2        0.9060    3.4420   26.0050 O.co2 243  ASP243     -0.2456
    145  N          0.3820    7.7960   29.4490 N.am  244  THR244     -0.1953
    146  CA         1.0430    8.8320   30.2420 C.3   244  THR244      0.1897
    147  C          0.6150    8.7360   31.7050 C.2   244  THR244      0.2313
    148  O          1.4600    8.6720   32.6010 O.2   244  THR244     -0.2863
    149  CB         0.7070   10.2390   29.7290 C.3   244  THR244      0.1794
    150  OG1       -0.7060   10.3400   29.5390 O.3   244  THR244     -0.2208
    151  CG2        1.4250   10.5250   28.4170 C.3   244  THR244      0.0378
    152  N          7.7820   11.7230   29.1860 N.3   287  VAL287     -0.1245
    153  CA         7.5600   11.8250   27.7470 C.3   287  VAL287      0.1561
    154  C          8.7880   12.3340   27.0090 C.2   287  VAL287      0.2260
    155  O          9.5630   13.1430   27.5320 O.2   287  VAL287     -0.2867
    156  CB         6.3450   12.7300   27.4200 C.3   287  VAL287      0.0252
    157  CG1        6.1280   12.8210   25.9040 C.3   287  VAL287      0.0019
    158  CG2        5.0970   12.1940   28.1050 C.3   287  VAL287      0.0019
    159  N          9.1260   13.2180   22.9630 N.3   289  ASP289     -0.1239
    160  CA         8.9140   13.1840   21.5290 C.3   289  ASP289      0.1674
    161  C          9.8370   14.1800   20.8340 C.2   289  ASP289      0.2266
    162  O         10.8260   14.6150   21.4250 O.2   289  ASP289     -0.2867
    163  CB         7.4330   13.1930   21.0810 C.3   289  ASP289      0.1410
    164  CG         6.6840   14.4690   21.4110 C.2   289  ASP289      0.3668
    165  OD1        7.2400   15.4050   22.0140 O.co2 289  ASP289     -0.2456
    166  OD2        5.4900   14.5150   21.0370 O.co2 289  ASP289     -0.2456
    167  N          8.9190    6.5880   23.8560 N.3   387  ILE387     -0.1231
    168  CA         8.2700    7.8900   23.7150 C.3   387  ILE387      0.1692
    169  C          7.6080    8.2290   25.0480 C.2   387  ILE387      0.2591
    170  O          7.6290    9.3770   25.4980 O.2   387  ILE387     -0.2718
    171  CB         7.2650    7.8570   22.5660 C.3   387  ILE387      0.0266
    172  CG1        8.0380    7.7630   21.2500 C.3   387  ILE387      0.0019
    173  CG2        6.3710    9.0820   22.5930 C.3   387  ILE387      0.0020
    174  CD1        7.1680    7.6010   20.0520 C.3   387  ILE387      0.0001
    175  N          7.0000    7.2210   25.6620 N.am  388  VAL388     -0.1980
    176  CA         6.4000    7.3710   26.9810 C.3   388  VAL388      0.1595
    177  C          7.0540    6.2630   27.7960 C.2   388  VAL388      0.2287
    178  O          6.7830    5.0800   27.5860 O.2   388  VAL388     -0.2864
    179  CB         4.8590    7.2050   26.9730 C.3   388  VAL388      0.0276
    180  CG1        4.3100    7.2770   28.4050 C.3   388  VAL388      0.0022
    181  CG2        4.2230    8.2940   26.1210 C.3   388  VAL388      0.0022
@<TRIPOS>BOND
     1    39    40    1
     2    47    46    2
     3    44    45    1
     4    46    45    1
     5    40    41    1
     6    40    43    1
     7    45    48    1
     8    41    42    2
     9    34    35    2
    10    34    33    1
    11    36    37    1
    12    36    33    1
    13    37    38    1
    14   109   110    2
    15   109   108    1
    16    33    32    1
    17    48    49    1
    18   107   108    1
    19   114   116   ar
    20   114   112   ar
    21   111   108    1
    22   111   112    1
    23    56    57    1
    24   116   117   ar
    25    16    15    2
    26   112   113   ar
    27    38    32    1
    28    49    50   ar
    29    49    51   ar
    30    50    52   ar
    31    32    26   am
    32    59    58    2
    33    58    57    1
    34    57    60    1
    35    15    14    1
    36    15    24   am
    37   117   115   ar
    38    13    14    1
    39    51    53   ar
    40    25    26    1
    41    25    24    1
    42    25    28    1
    43    26    27    2
    44    52    54   ar
    45   113   115   ar
    46    62    64   ar
    47    62    61   ar
    48    69    70    2
    49    69    68    1
    50    14    17    1
    51    17    18    1
    52    20    22   ar
    53    20    18   ar
    54    64    66   ar
    55    29    28    1
    56    29    31    1
    57    60    61    1
    58    30    28    1
    59    61    63   ar
    60    22    23   ar
    61    53    54   ar
    62    54    55    1
    63    18    19   ar
    64    67    68    1
    65    66    65   ar
    66    68    71    1
    67    63    65   ar
    68    72    71    1
    69    81    80    1
    70    71    73    1
    71    23    21   ar
    72    19    21   ar
    73    79    80    1
    74    79    78    1
    75   104   105    1
    76   104   101    1
    77   105   106    1
    78    77    76    2
    79    12    11    1
    80    75    78    1
    81    75    76    1
    82    75    74    1
    83    10    11   ar
    84    10     8   ar
    85   118   119    1
    86   122   119    1
    87   122   123    1
    88   125   123    1
    89    11     9   ar
    90    76    82   am
    91   174   172    1
    92     8     6   ar
    93   106   100    1
    94   101   102    1
    95   101   100    1
    96   119   120    1
    97   123   124    1
    98   102   103    2
    99   161   162    2
   100   161   160    1
   101   166   164   ar
   102   163   164    1
   103   163   160    1
   104     9     7   ar
   105   100    91   am
   106    82    83    1
   107   172   171    1
   108     6     7   ar
   109     6     5    1
   110   164   165   ar
   111   160   159    1
   112   132   130    1
   113   131   130    1
   114   120   121    2
   115    83    84    1
   116    83    86    1
   117     5     2    1
   118    88    86    1
   119   130   127    1
   120    91    92    2
   121    91    90    1
   122    84    89   am
   123    84    85    2
   124   171   173    1
   125   171   168    1
   126    89    90    1
   127    86    87    1
   128     1     2    1
   129    90    93    1
   130     2     3    1
   131   126   127    1
   132   168   167    1
   133   168   169    1
   134   127   128    1
   135     3     4    2
   136   133   128   am
   137   133   134    1
   138   128   129    2
   139    93    94    1
   140   169   170    2
   141   169   175   am
   142   134   135    1
   143    94    95    1
   144   175   176    1
   145   157   156    1
   146   144   142   ar
   147   181   179    1
   148   135   136    2
   149   179   176    1
   150   179   180    1
   151   176   177    1
   152    95    96    1
   153   142   143   ar
   154   142   141    1
   155   154   155    2
   156   154   153    1
   157    98    97    1
   158    96    97    2
   159    97    99    1
   160   156   153    1
   161   156   158    1
   162   178   177    2
   163   141   138    1
   164   153   152    1
   165   151   149    1
   166   137   138    1
   167   138   139    1
   168   145   139   am
   169   145   146    1
   170   150   149    1
   171   139   140    2
   172   149   146    1
   173   146   147    1
   174   147   148    2
