@<TRIPOS>MOLECULE
tmp/1qmuA00.pdb
 91 87 0 0 0
SMALL
GASTEIGER

@<TRIPOS>ATOM
      1  N         -0.7470   33.5500   30.4240 N.3   129  THR129     -0.1218
      2  CA        -1.1800   33.5850   29.0220 C.3   129  THR129      0.1862
      3  C         -2.4560   34.3570   28.7940 C.2   129  THR129      0.2287
      4  O         -2.9340   34.4740   27.6640 O.2   129  THR129     -0.2866
      5  CB        -1.4350   32.1960   28.4360 C.3   129  THR129      0.1770
      6  OG1       -2.5200   31.5800   29.1420 O.3   129  THR129     -0.2211
      7  CG2       -0.1850   31.3450   28.5050 C.3   129  THR129      0.0375
      8  N         -2.8700   36.6810   25.7640 N.3   132  ARG132     -0.1231
      9  CA        -1.8760   36.3600   24.7560 C.3   132  ARG132      0.1694
     10  C         -2.5600   36.2120   23.4090 C.2   132  ARG132      0.2592
     11  O         -2.2120   36.8910   22.4390 O.2   132  ARG132     -0.2718
     12  CB        -1.1730   35.0560   25.1070 C.3   132  ARG132      0.0321
     13  CG        -0.3570   34.4770   23.9690 C.3   132  ARG132      0.0489
     14  CD         0.1700   33.1250   24.3510 C.3   132  ARG132      0.2205
     15  NE         0.8830   32.4290   23.2820 N.pl3 132  ARG132     -0.0865
     16  CZ         2.1620   32.6180   22.9700 C.cat 132  ARG132      0.5346
     17  NH1        2.8920   33.5060   23.6420 N.pl3 132  ARG132      0.1354
     18  NH2        2.7250   31.8830   22.0110 N.pl3 132  ARG132      0.1354
     19  N         -3.5360   35.3150   23.3420 N.am  133  ASN133     -0.1974
     20  CA        -4.2580   35.1010   22.0990 C.3   133  ASN133      0.1688
     21  C         -5.0860   36.3070   21.6860 C.2   133  ASN133      0.2292
     22  O         -5.1550   37.3000   22.4200 O.2   133  ASN133     -0.2864
     23  CB        -5.1400   33.8690   22.2220 C.3   133  ASN133      0.1181
     24  CG        -4.3560   32.6020   22.0270 C.2   133  ASN133      0.2629
     25  OD1       -3.2500   32.6490   21.4990 O.2   133  ASN133     -0.2716
     26  ND2       -4.9050   31.4630   22.4200 N.am  133  ASN133     -0.0877
     27  N         -9.3960   33.9430   20.3350 N.3   137  ASN137     -0.1225
     28  CA        -8.5000   32.9950   20.9720 C.3   137  ASN137      0.1785
     29  C         -7.6470   32.1020   20.0780 C.2   137  ASN137      0.2597
     30  O         -7.6770   30.8710   20.1780 O.2   137  ASN137     -0.2718
     31  CB        -9.2610   32.1180   21.9540 C.3   137  ASN137      0.1169
     32  CG        -8.3350   31.4000   22.8990 C.2   137  ASN137      0.2627
     33  OD1       -7.4920   32.0280   23.5410 O.2   137  ASN137     -0.2716
     34  ND2       -8.4780   30.0850   22.9940 N.am  137  ASN137     -0.0877
     35  N         -6.8820   32.7440   19.2070 N.am  138  TYR138     -0.1962
     36  CA        -5.9610   32.0510   18.3430 C.3   138  TYR138      0.1771
     37  C         -4.6490   32.7680   18.5670 C.2   138  TYR138      0.2619
     38  O         -4.6410   33.9510   18.9020 O.2   138  TYR138     -0.2715
     39  CB        -6.3920   32.1540   16.8910 C.3   138  TYR138      0.0574
     40  CG        -7.5520   31.2450   16.5750 C.ar  138  TYR138     -0.0198
     41  CD1       -7.3350   29.9120   16.2630 C.ar  138  TYR138     -0.0009
     42  CD2       -8.8700   31.7080   16.6080 C.ar  138  TYR138     -0.0009
     43  CE1       -8.3930   29.0470   15.9870 C.ar  138  TYR138      0.0417
     44  CE2       -9.9480   30.8500   16.3310 C.ar  138  TYR138      0.0417
     45  CZ        -9.7010   29.5140   16.0200 C.ar  138  TYR138      0.1957
     46  OH       -10.7420   28.6320   15.7440 O.3   138  TYR138     -0.2866
     47  N         -3.5470   32.0410   18.4170 N.am  139  ASP139     -0.1971
     48  CA        -2.2090   32.5950   18.6050 C.3   139  ASP139      0.1709
     49  C         -1.8170   33.2840   17.3030 C.2   139  ASP139      0.2293
     50  O         -1.4760   32.6140   16.3260 O.2   139  ASP139     -0.2864
     51  CB        -1.2330   31.4570   18.9060 C.3   139  ASP139      0.1436
     52  CG         0.0570   31.9370   19.5390 C.2   139  ASP139      0.3671
     53  OD1        0.5960   32.9820   19.0970 O.co2 139  ASP139     -0.2456
     54  OD2        0.5350   31.2480   20.4750 O.co2 139  ASP139     -0.2456
     55  N          0.9250   31.8640   15.2480 N.3   142  ARG142     -0.1245
     56  CA         0.7720   30.4790   14.8250 C.3   142  ARG142      0.1563
     57  C         -0.2790   30.5820   13.7340 C.2   142  ARG142      0.2260
     58  O         -0.6730   29.5870   13.1390 O.2   142  ARG142     -0.2867
     59  CB         0.1870   29.6190   15.9280 C.3   142  ARG142      0.0307
     60  CG         1.0090   29.5250   17.1430 C.3   142  ARG142      0.0489
     61  CD         2.1160   28.4930   17.0310 C.3   142  ARG142      0.2205
     62  NE         2.8450   28.4760   18.2970 N.pl3 142  ARG142     -0.0865
     63  CZ         3.5890   29.4910   18.7360 C.cat 142  ARG142      0.5346
     64  NH1        3.7620   30.5760   17.9860 N.pl3 142  ARG142      0.1354
     65  NH2        4.1930   29.4100   19.9080 N.pl3 142  ARG142      0.1354
     66  N          4.4730   22.8210    8.3000 N.3   149  PHE149     -0.1241
     67  CA         3.1920   22.4300    8.8900 C.3   149  PHE149      0.1605
     68  C          2.1090   23.1520    8.0940 C.2   149  PHE149      0.2264
     69  O          2.3580   24.2050    7.5000 O.2   149  PHE149     -0.2867
     70  CB         3.1410   22.8840   10.3690 C.3   149  PHE149      0.0534
     71  CG         1.8540   22.5160   11.1100 C.ar  149  PHE149     -0.0203
     72  CD1        1.5800   21.1890   11.4720 C.ar  149  PHE149     -0.0042
     73  CD2        0.9320   23.5030   11.4740 C.ar  149  PHE149     -0.0042
     74  CE1        0.4100   20.8490   12.1900 C.ar  149  PHE149     -0.0003
     75  CE2       -0.2410   23.1750   12.1900 C.ar  149  PHE149     -0.0003
     76  CZ        -0.4980   21.8450   12.5460 C.ar  149  PHE149     -0.0000
     77  N         -5.8090   26.9660   12.1920 N.3   153  ASP153     -0.1239
     78  CA        -6.5440   28.0220   12.8280 C.3   153  ASP153      0.1674
     79  C         -6.9750   28.9530   11.6920 C.2   153  ASP153      0.2266
     80  O         -6.1950   29.2770   10.7820 O.2   153  ASP153     -0.2867
     81  CB        -5.6520   28.7640   13.8270 C.3   153  ASP153      0.1410
     82  CG        -5.0440   27.8370   14.8750 C.2   153  ASP153      0.3668
     83  OD1       -5.5290   26.6870   15.0120 O.co2 153  ASP153     -0.2456
     84  OD2       -4.0840   28.2670   15.5640 O.co2 153  ASP153     -0.2456
     85  N          5.3170   26.6520   14.4130 N.3   250  PRO250     -0.2116
     86  CA         4.7630   26.6470   13.0670 C.3   250  PRO250      0.1372
     87  C          3.6980   27.7290   12.9550 C.2   250  PRO250      0.2244
     88  O          2.9530   27.9680   13.9030 O.2   250  PRO250     -0.2868
     89  CB         4.2040   25.2390   12.9500 C.3   250  PRO250      0.0268
     90  CG         3.6780   24.9970   14.3440 C.3   250  PRO250      0.0207
     91  CD         4.7390   25.5900   15.2500 C.3   250  PRO250      0.0892
@<TRIPOS>BOND
     1    69    68    2
     2    68    67    1
     3    66    67    1
     4    67    70    1
     5    70    71    1
     6    80    79    2
     7    71    72   ar
     8    71    73   ar
     9    72    74   ar
    10    73    75   ar
    11    79    78    1
    12    75    76   ar
    13    74    76   ar
    14    77    78    1
    15    78    81    1
    16    89    86    1
    17    89    90    1
    18    87    86    1
    19    87    88    2
    20    86    85    1
    21    58    57    2
    22    57    56    1
    23    81    82    1
    24    90    91    1
    25    85    91    1
    26    56    55    1
    27    56    59    1
    28    82    83   ar
    29    82    84   ar
    30    46    45    1
    31    59    60    1
    32    43    45   ar
    33    43    41   ar
    34    45    44   ar
    35    41    40   ar
    36    50    49    2
    37    44    42   ar
    38    40    42   ar
    39    40    39    1
    40    39    36    1
    41    61    60    1
    42    61    62    1
    43    49    48    1
    44    64    63    1
    45    62    63    2
    46    36    37    1
    47    36    35    1
    48    47    37   am
    49    47    48    1
    50    37    38    2
    51    48    51    1
    52    63    65    1
    53    51    52    1
    54    53    52   ar
    55    35    29   am
    56    52    54   ar
    57    29    30    2
    58    29    28    1
    59    27    28    1
    60    28    31    1
    61    25    24    2
    62    21    20    1
    63    21    22    2
    64    31    32    1
    65    18    16    1
    66    24    23    1
    67    24    26   am
    68    20    23    1
    69    20    19    1
    70    11    10    2
    71    32    34   am
    72    32    33    2
    73    16    15    2
    74    16    17    1
    75    15    14    1
    76    19    10   am
    77    10     9    1
    78    13    14    1
    79    13    12    1
    80     9    12    1
    81     9     8    1
    82     4     3    2
    83     5     7    1
    84     5     2    1
    85     5     6    1
    86     3     2    1
    87     2     1    1
