@<TRIPOS>MOLECULE
tmp/1qnfA01.pdb
 191 183 0 0 0
SMALL
GASTEIGER

@<TRIPOS>ATOM
      1  N         33.2620    1.9770   61.1070 N.3     8  TRP8       -0.1241
      2  CA        34.3410    2.3500   61.9970 C.3     8  TRP8        0.1605
      3  C         34.9870    3.7010   61.6230 C.2     8  TRP8        0.2264
      4  O         35.6160    3.8220   60.5880 O.2     8  TRP8       -0.2867
      5  CB        35.3380    1.1800   61.9980 C.3     8  TRP8        0.0550
      6  CG        36.5860    1.3460   62.7930 C.ar    8  TRP8        0.0003
      7  CD1       36.8160    2.2370   63.8260 C.ar    8  TRP8        0.0946
      8  CD2       37.8120    0.6470   62.5840 C.ar    8  TRP8        0.0152
      9  NE1       38.1180    2.1250   64.2520 N.ar    8  TRP8       -0.2442
     10  CE2       38.7480    1.1560   63.5100 C.ar    8  TRP8        0.0810
     11  CE3       38.2140   -0.3550   61.6960 C.ar    8  TRP8        0.0012
     12  CZ2       40.0480    0.6920   63.5660 C.ar    8  TRP8        0.0191
     13  CZ3       39.4960   -0.8090   61.7500 C.ar    8  TRP8        0.0001
     14  CH2       40.4060   -0.2940   62.6770 C.ar    8  TRP8        0.0015
     15  N         37.6500    6.8630   62.0530 N.3    10  ARG10      -0.1231
     16  CA        39.0220    7.1110   62.5430 C.3    10  ARG10       0.1694
     17  C         39.4060    8.5630   62.2290 C.2    10  ARG10       0.2591
     18  O         39.6960    9.3330   63.1260 O.2    10  ARG10      -0.2718
     19  CB        40.0730    6.1640   61.9340 C.3    10  ARG10       0.0321
     20  CG        39.8390    4.6580   62.1400 C.3    10  ARG10       0.0489
     21  CD        38.9290    4.0760   61.0590 C.3    10  ARG10       0.2205
     22  NE        39.6050    4.0150   59.7710 N.pl3  10  ARG10      -0.0865
     23  CZ        40.4270    3.0400   59.4350 C.cat  10  ARG10       0.5346
     24  NH1       40.6470    2.0510   60.2710 N.pl3  10  ARG10       0.1354
     25  NH2       41.0680    3.0660   58.2820 N.pl3  10  ARG10       0.1354
     26  N         39.4400    8.9380   60.9470 N.am   11  ARG11      -0.1980
     27  CA        39.8030   10.3230   60.5920 C.3    11  ARG11       0.1597
     28  C         38.7840   10.8820   59.5870 C.2    11  ARG11       0.2287
     29  O         39.1260   11.6070   58.6550 O.2    11  ARG11      -0.2864
     30  CB        41.2350   10.3890   60.0060 C.3    11  ARG11       0.0334
     31  CG        41.5280    9.3270   58.9320 C.3    11  ARG11       0.0492
     32  CD        42.9620    9.3850   58.4850 C.3    11  ARG11       0.2205
     33  NE        43.3370   10.7770   58.1940 N.pl3  11  ARG11      -0.0865
     34  CZ        44.5810   11.1880   57.9870 C.cat  11  ARG11       0.5346
     35  NH1       45.5710   10.3260   58.0300 N.pl3  11  ARG11       0.1354
     36  NH2       44.8370   12.4680   57.7530 N.pl3  11  ARG11       0.1354
     37  N         33.9490    4.3930   67.3340 N.3    35  PHE35      -0.1227
     38  CA        35.2410    5.0390   67.3280 C.3    35  PHE35       0.1736
     39  C         35.9880    4.3130   68.4250 C.2    35  PHE35       0.2596
     40  O         35.4140    4.0320   69.4760 O.2    35  PHE35      -0.2718
     41  CB        35.1550    6.5410   67.6490 C.3    35  PHE35       0.0547
     42  CG        36.4830    7.2410   67.5480 C.ar   35  PHE35      -0.0202
     43  CD1       36.9700    7.6670   66.3180 C.ar   35  PHE35      -0.0042
     44  CD2       37.2920    7.4070   68.6690 C.ar   35  PHE35      -0.0042
     45  CE1       38.2240    8.2330   66.2180 C.ar   35  PHE35      -0.0003
     46  CE2       38.5620    7.9800   68.5570 C.ar   35  PHE35      -0.0003
     47  CZ        39.0200    8.3870   67.3350 C.ar   35  PHE35      -0.0000
     48  N         37.2320    3.9420   68.1670 N.am   36  CYS36      -0.1956
     49  CA        38.0190    3.2430   69.1670 C.3    36  CYS36       0.1843
     50  C         39.2140    4.0870   69.6320 C.2    36  CYS36       0.2625
     51  O         40.0970    4.4170   68.8250 O.2    36  CYS36      -0.2714
     52  CB        38.5020    1.9060   68.6170 C.3    36  CYS36       0.0997
     53  SG        39.4240    0.9020   69.8150 S.3    36  CYS36      -0.0797
     54  N         39.1930    4.5030   70.9040 N.am   37  LEU37      -0.1963
     55  CA        40.2780    5.2830   71.4790 C.3    37  LEU37       0.1728
     56  C         41.4410    4.3070   71.5680 C.2    37  LEU37       0.2616
     57  O         41.4110    3.3380   72.3220 O.2    37  LEU37      -0.2715
     58  CB        39.8740    5.8250   72.8460 C.3    37  LEU37       0.0311
     59  CG        38.7070    6.8270   72.7940 C.3    37  LEU37       0.0022
     60  CD1       38.2120    7.1020   74.2070 C.3    37  LEU37       0.0001
     61  CD2       39.1370    8.1190   72.1210 C.3    37  LEU37       0.0001
     62  N         42.4580    4.5690   70.7680 N.am   38  ASP38      -0.1971
     63  CA        43.6080    3.6870   70.6420 C.3    38  ASP38       0.1709
     64  C         44.8100    4.1670   71.4680 C.2    38  ASP38       0.2293
     65  O         45.3920    5.2250   71.1890 O.2    38  ASP38      -0.2864
     66  CB        43.9560    3.6330   69.1420 C.3    38  ASP38       0.1436
     67  CG        44.9970    2.6220   68.8210 C.2    38  ASP38       0.3671
     68  OD1       45.6790    2.1470   69.7590 O.co2  38  ASP38      -0.2456
     69  OD2       45.1360    2.3110   67.6180 O.co2  38  ASP38      -0.2456
     70  N         48.1090    5.3110   69.9120 N.3    41  ILE41      -0.1231
     71  CA        48.1420    6.6500   69.3330 C.3    41  ILE41       0.1692
     72  C         48.0540    7.7380   70.4060 C.2    41  ILE41       0.2591
     73  O         48.8730    8.6500   70.4700 O.2    41  ILE41      -0.2718
     74  CB        46.9690    6.8870   68.3860 C.3    41  ILE41       0.0266
     75  CG1       47.0090    5.8810   67.2390 C.3    41  ILE41       0.0019
     76  CG2       47.0120    8.3180   67.8820 C.3    41  ILE41       0.0020
     77  CD1       45.8470    6.0260   66.2620 C.3    41  ILE41       0.0001
     78  N         47.0430    7.6410   71.2460 N.am   42  LEU42      -0.1980
     79  CA        46.8420    8.6640   72.2590 C.3    42  LEU42       0.1596
     80  C         47.9470    8.7850   73.2970 C.2    42  LEU42       0.2287
     81  O         48.0740    9.8200   73.9480 O.2    42  LEU42      -0.2864
     82  CB        45.5150    8.4240   72.9630 C.3    42  LEU42       0.0297
     83  CG        44.2790    8.7460   72.1510 C.3    42  LEU42       0.0022
     84  CD1       43.0810    8.2260   72.8870 C.3    42  LEU42       0.0001
     85  CD2       44.1730   10.2420   71.9770 C.3    42  LEU42       0.0001
     86  N         51.7100   13.2820   70.3400 N.3    47  MET47      -0.1245
     87  CA        50.3960   13.9280   70.4480 C.3    47  MET47       0.1570
     88  C         50.5650   15.3960   70.7930 C.2    47  MET47       0.2261
     89  O         51.4520   15.7420   71.5490 O.2    47  MET47      -0.2867
     90  CB        49.5390   13.3060   71.5610 C.3    47  MET47       0.0387
     91  CG        48.8930   11.9880   71.2440 C.3    47  MET47       0.0595
     92  SD        47.7850   12.1080   69.8370 S.3    47  MET47      -0.1393
     93  CE        48.7170   11.2300   68.6730 C.3    47  MET47       0.0692
     94  N         45.5060   19.2420   69.1980 N.3    51  ARG51      -0.1231
     95  CA        44.9650   18.2170   68.2950 C.3    51  ARG51       0.1694
     96  C         44.0040   17.2310   68.9730 C.2    51  ARG51       0.2591
     97  O         42.9810   16.8450   68.4090 O.2    51  ARG51      -0.2718
     98  CB        46.0980   17.4890   67.5600 C.3    51  ARG51       0.0321
     99  CG        45.6460   16.7230   66.3270 C.3    51  ARG51       0.0489
    100  CD        46.8090   16.4810   65.3840 C.3    51  ARG51       0.2205
    101  NE        47.7070   15.4240   65.8330 N.pl3  51  ARG51      -0.0865
    102  CZ        48.9430   15.5960   66.2890 C.cat  51  ARG51       0.5346
    103  NH1       49.4760   16.8060   66.4000 N.pl3  51  ARG51       0.1354
    104  NH2       49.6790   14.5360   66.5830 N.pl3  51  ARG51       0.1354
    105  N         44.3080   16.8420   70.2050 N.am   52  VAL52      -0.1980
    106  CA        43.3960   15.9430   70.9240 C.3    52  VAL52       0.1595
    107  C         42.1300   16.7460   71.2710 C.2    52  VAL52       0.2287
    108  O         40.9940   16.2540   71.1340 O.2    52  VAL52      -0.2864
    109  CB        44.0940   15.3450   72.1760 C.3    52  VAL52       0.0276
    110  CG1       43.1290   14.5470   72.9980 C.3    52  VAL52       0.0022
    111  CG2       45.2270   14.4360   71.7330 C.3    52  VAL52       0.0022
    112  N         40.0480   16.7990   68.2800 N.3    55  LEU55      -0.1245
    113  CA        39.4570   15.4890   68.0630 C.3    55  LEU55       0.1561
    114  C         38.2810   15.2950   68.9910 C.2    55  LEU55       0.2260
    115  O         37.2080   14.9030   68.5790 O.2    55  LEU55      -0.2867
    116  CB        40.5070   14.4050   68.3300 C.3    55  LEU55       0.0270
    117  CG        40.0980   12.9300   68.5110 C.3    55  LEU55       0.0019
    118  CD1       39.4080   12.3800   67.2550 C.3    55  LEU55       0.0001
    119  CD2       41.3550   12.1040   68.7970 C.3    55  LEU55       0.0001
    120  N         43.2940    4.4860   54.7780 N.3   101  ASP101     -0.1239
    121  CA        44.2040    5.5610   55.0960 C.3   101  ASP101      0.1674
    122  C         45.5320    5.2960   54.3720 C.2   101  ASP101      0.2266
    123  O         45.7210    4.2410   53.7640 O.2   101  ASP101     -0.2867
    124  CB        44.4140    5.6240   56.6070 C.3   101  ASP101      0.1410
    125  CG        45.1910    6.8550   57.0320 C.2   101  ASP101      0.3668
    126  OD1       45.2830    7.8220   56.2450 O.co2 101  ASP101     -0.2456
    127  OD2       45.7150    6.8420   58.1630 O.co2 101  ASP101     -0.2456
    128  N         48.6840    6.1290   56.1220 N.3   103  GLU103     -0.1245
    129  CA        49.7570    6.0050   57.0940 C.3   103  GLU103      0.1567
    130  C         50.1520    4.5590   57.3940 C.2   103  GLU103      0.2260
    131  O         49.3070    3.6560   57.4550 O.2   103  GLU103     -0.2867
    132  CB        49.3980    6.7790   58.3730 C.3   103  GLU103      0.0388
    133  CG        49.0760    8.2350   58.1010 C.3   103  GLU103      0.1160
    134  CD        48.7770    8.9990   59.3690 C.2   103  GLU103      0.3649
    135  OE1       48.7920    8.3610   60.4310 O.co2 103  GLU103     -0.2457
    136  OE2       48.5320   10.2260   59.3130 O.co2 103  GLU103     -0.2457
    137  N         51.1240    3.0810   60.1540 N.3   105  TYR105     -0.1227
    138  CA        50.4430    2.5110   61.3070 C.3   105  TYR105      0.1736
    139  C         49.0170    2.1490   60.9250 C.2   105  TYR105      0.2596
    140  O         48.5770    1.0210   61.1240 O.2   105  TYR105     -0.2718
    141  CB        50.4110    3.4900   62.4740 C.3   105  TYR105      0.0548
    142  CG        49.6040    2.9600   63.6320 C.ar  105  TYR105     -0.0200
    143  CD1       50.1080    1.9620   64.4480 C.ar  105  TYR105     -0.0009
    144  CD2       48.3160    3.4130   63.8770 C.ar  105  TYR105     -0.0009
    145  CE1       49.3490    1.4300   65.4690 C.ar  105  TYR105      0.0417
    146  CE2       47.5550    2.8930   64.8890 C.ar  105  TYR105      0.0417
    147  CZ        48.0630    1.9030   65.6850 C.ar  105  TYR105      0.1957
    148  OH        47.2900    1.3700   66.7000 O.3   105  TYR105     -0.2866
    149  N         48.3030    3.1000   60.3390 N.am  106  GLY106     -0.1957
    150  CA        46.9300    2.8450   59.9650 C.3   106  GLY106      0.1869
    151  C         46.7870    1.6710   59.0190 C.2   106  GLY106      0.2309
    152  O         45.8900    0.8350   59.1750 O.2   106  GLY106     -0.2863
    153  N         47.4530   -1.7500   60.9640 N.3   109  ARG109     -0.1245
    154  CA        46.3170   -2.0030   61.8380 C.3   109  ARG109      0.1563
    155  C         45.1390   -2.5430   61.0310 C.2   109  ARG109      0.2260
    156  O         44.4720   -3.5070   61.4220 O.2   109  ARG109     -0.2867
    157  CB        45.8900   -0.6890   62.4830 C.3   109  ARG109      0.0307
    158  CG        44.5370   -0.7450   63.2240 C.3   109  ARG109      0.0489
    159  CD        44.0020    0.6650   63.4570 C.3   109  ARG109      0.2205
    160  NE        43.7850    1.3560   62.1790 N.pl3 109  ARG109     -0.0865
    161  CZ        43.7470    2.6790   62.0400 C.cat 109  ARG109      0.5346
    162  NH1       43.9040    3.4590   63.1030 N.pl3 109  ARG109      0.1354
    163  NH2       43.5620    3.2250   60.8480 N.pl3 109  ARG109      0.1354
    164  N         42.3010   17.1830   58.1950 N.3   248  LYS248     -0.1231
    165  CA        43.0960   16.1080   58.7870 C.3   248  LYS248      0.1693
    166  C         42.1530   15.0810   59.3930 C.2   248  LYS248      0.2592
    167  O         42.3280   13.8840   59.2210 O.2   248  LYS248     -0.2718
    168  CB        44.0520   16.6720   59.8700 C.3   248  LYS248      0.0285
    169  CG        45.1020   15.6790   60.4130 C.3   248  LYS248      0.0035
    170  CD        44.4970   14.7360   61.4630 C.3   248  LYS248      0.0206
    171  CE        45.2990   13.4360   61.6750 C.3   248  LYS248      0.1093
    172  NZ        46.6210   13.5740   62.3190 N.3   248  LYS248     -0.1314
    173  N         41.1360   15.5500   60.0980 N.am  249  PHE249     -0.1976
    174  CA        40.1840   14.6620   60.7510 C.3   249  PHE249      0.1639
    175  C         38.8910   14.3990   60.0140 C.2   249  PHE249      0.2290
    176  O         37.9580   13.8430   60.5710 O.2   249  PHE249     -0.2864
    177  CB        39.8290   15.1930   62.1320 C.3   249  PHE249      0.0560
    178  CG        40.8920   14.9530   63.1700 C.ar  249  PHE249     -0.0200
    179  CD1       41.1810   13.6650   63.5950 C.ar  249  PHE249     -0.0042
    180  CD2       41.5900   16.0180   63.7270 C.ar  249  PHE249     -0.0042
    181  CE1       42.1490   13.4400   64.5550 C.ar  249  PHE249     -0.0003
    182  CE2       42.5460   15.8030   64.6710 C.ar  249  PHE249     -0.0003
    183  CZ        42.8270   14.5030   65.0890 C.ar  249  PHE249     -0.0000
    184  N         54.7060   18.0110   65.3220 N.3   375  MET375     -0.1245
    185  CA        53.6310   17.0400   65.6370 C.3   375  MET375      0.1570
    186  C         53.1750   17.2240   67.0650 C.2   375  MET375      0.2261
    187  O         52.0150   16.9810   67.3850 O.2   375  MET375     -0.2867
    188  CB        54.0780   15.5790   65.4840 C.3   375  MET375      0.0387
    189  CG        54.1410   15.0340   64.0680 C.3   375  MET375      0.0595
    190  SD        52.6330   15.3420   63.1450 S.3   375  MET375     -0.1393
    191  CE        51.6020   14.0510   63.6620 C.3   375  MET375      0.0692
@<TRIPOS>BOND
     1   123   122    2
     2   122   121    1
     3   120   121    1
     4   121   124    1
     5   128   129    1
     6   126   125   ar
     7   124   125    1
     8   125   127   ar
     9   129   130    1
    10   129   132    1
    11   130   131    2
    12    36    34    1
    13    34    35    1
    14    34    33    2
    15   133   132    1
    16   133   134    1
    17    33    32    1
    18   164   165    1
    19    25    23    1
    20    32    31    1
    21    29    28    2
    22   165   166    1
    23   165   168    1
    24    31    30    1
    25   151   152    2
    26   151   150    1
    27   167   166    2
    28   136   134   ar
    29   134   135   ar
    30   166   173   am
    31    23    22    2
    32    23    24    1
    33    28    27    1
    34    22    21    1
    35   168   169    1
    36   150   149    1
    37    30    27    1
    38   175   176    2
    39   175   174    1
    40   173   174    1
    41   137   138    1
    42   149   139   am
    43   169   170    1
    44     4     3    2
    45    27    26    1
    46   174   177    1
    47   163   161    1
    48   139   140    2
    49   139   138    1
    50    26    17   am
    51   153   154    1
    52   155   156    2
    53   155   154    1
    54    21    20    1
    55     1     2    1
    56   138   141    1
    57   170   171    1
    58     3     2    1
    59   171   172    1
    60    11    13   ar
    61    11     8   ar
    62    13    14   ar
    63   154   157    1
    64    19    20    1
    65    19    16    1
    66     2     5    1
    67     5     6    1
    68   161   160    2
    69   161   162    1
    70    15    16    1
    71   177   178    1
    72   160   159    1
    73    17    16    1
    74    17    18    2
    75   141   142    1
    76   157   158    1
    77     8     6   ar
    78     8    10   ar
    79    14    12   ar
    80     6     7   ar
    81   190   191    1
    82   190   189    1
    83   178   179   ar
    84   178   180   ar
    85   158   159    1
    86    10    12   ar
    87    10     9   ar
    88   179   181   ar
    89   142   144   ar
    90   142   143   ar
    91   180   182   ar
    92     7     9   ar
    93   144   146   ar
    94   189   188    1
    95   143   145   ar
    96   181   183   ar
    97   182   183   ar
    98   146   147   ar
    99   184   185    1
   100   100   101    1
   101   100    99    1
   102   145   147   ar
   103   188   185    1
   104   185   186    1
   105   147   148    1
   106   101   102    2
   107    45    43   ar
   108    45    47   ar
   109    77    75    1
   110   102   103    1
   111   102   104    1
   112    43    42   ar
   113    99    98    1
   114   186   187    2
   115    75    74    1
   116   118   117    1
   117    38    37    1
   118    38    41    1
   119    38    39    1
   120    47    46   ar
   121    42    41    1
   122    42    44   ar
   123    98    95    1
   124    69    67   ar
   125    76    74    1
   126   113   112    1
   127   113   116    1
   128   113   114    1
   129    48    39   am
   130    48    49    1
   131    95    96    1
   132    95    94    1
   133   116   117    1
   134    74    71    1
   135    97    96    2
   136    39    40    2
   137   117   119    1
   138    46    44   ar
   139   115   114    2
   140    52    49    1
   141    52    53    1
   142    93    92    1
   143    67    66    1
   144    67    68   ar
   145    51    50    2
   146    96   105   am
   147    66    63    1
   148    49    50    1
   149    71    70    1
   150    71    72    1
   151    50    54   am
   152    92    91    1
   153   105   106    1
   154    86    87    1
   155    72    73    2
   156    72    78   am
   157    87    88    1
   158    87    90    1
   159    63    62    1
   160    63    64    1
   161    62    56   am
   162    88    89    2
   163    54    55    1
   164   106   107    1
   165   106   109    1
   166   108   107    2
   167    65    64    2
   168    91    90    1
   169    78    79    1
   170    55    56    1
   171    55    58    1
   172    56    57    2
   173   111   109    1
   174    85    83    1
   175    61    59    1
   176    83    84    1
   177    83    82    1
   178   109   110    1
   179    79    82    1
   180    79    80    1
   181    59    58    1
   182    59    60    1
   183    80    81    2
