@<TRIPOS>MOLECULE
tmp/1qngA00.pdb
 195 188 0 0 0
SMALL
GASTEIGER

@<TRIPOS>ATOM
      1  N          9.1120   44.1180  -27.6500 N.3    60  HIS60      -0.1226
      2  CA         8.0270   44.7980  -26.9420 C.3    60  HIS60       0.1752
      3  C          8.1070   46.3170  -26.8920 C.2    60  HIS60       0.2595
      4  O          7.1270   46.9760  -26.5620 O.2    60  HIS60      -0.2718
      5  CB         7.9330   44.2730  -25.5030 C.3    60  HIS60       0.0759
      6  CG         9.1270   44.6030  -24.6580 C.ar   60  HIS60       0.0818
      7  ND1       10.2910   43.8640  -24.6870 N.ar   60  HIS60      -0.2268
      8  CD2        9.3470   45.6140  -23.7840 C.ar   60  HIS60       0.1154
      9  CE1       11.1760   44.4050  -23.8680 C.ar   60  HIS60       0.1986
     10  NE2       10.6290   45.4690  -23.3070 N.ar   60  HIS60      -0.2212
     11  N          9.2650   46.8780  -27.2120 N.am   61  ARG61      -0.1980
     12  CA         9.4150   48.3210  -27.1630 C.3    61  ARG61       0.1597
     13  C         10.2860   48.8480  -28.2940 C.2    61  ARG61       0.2287
     14  O         11.4800   48.5630  -28.3560 O.2    61  ARG61      -0.2864
     15  CB        10.0020   48.7210  -25.8080 C.3    61  ARG61       0.0334
     16  CG        10.1740   50.2140  -25.5770 C.3    61  ARG61       0.0492
     17  CD        10.4130   50.4730  -24.0860 C.3    61  ARG61       0.2205
     18  NE        10.7190   51.8670  -23.7890 N.pl3  61  ARG61      -0.0865
     19  CZ        11.9440   52.3890  -23.7700 C.cat  61  ARG61       0.5346
     20  NH1       13.0050   51.6330  -24.0300 N.pl3  61  ARG61       0.1354
     21  NH2       12.1110   53.6740  -23.4870 N.pl3  61  ARG61       0.1354
     22  N         11.0340   52.5230  -30.4000 N.3    63  ILE63      -0.1245
     23  CA        10.8480   53.9630  -30.4970 C.3    63  ILE63       0.1561
     24  C         11.6420   54.4540  -31.6960 C.2    63  ILE63       0.2260
     25  O         12.8690   54.4360  -31.6810 O.2    63  ILE63      -0.2867
     26  CB        11.3540   54.6760  -29.2230 C.3    63  ILE63       0.0252
     27  CG1       10.5240   54.2260  -28.0170 C.3    63  ILE63       0.0019
     28  CG2       11.2770   56.1890  -29.4000 C.3    63  ILE63       0.0019
     29  CD1       11.0030   54.7700  -26.6840 C.3    63  ILE63       0.0001
     30  N         13.8150   56.2670  -34.4030 N.3    65  GLN65      -0.1231
     31  CA        14.9610   57.1490  -34.2310 C.3    65  GLN65       0.1698
     32  C         15.6010   57.0610  -32.8470 C.2    65  GLN65       0.2592
     33  O         16.1690   58.0300  -32.3430 O.2    65  GLN65      -0.2718
     34  CB        14.5570   58.5920  -34.5540 C.3    65  GLN65       0.0381
     35  CG        14.3160   58.8150  -36.0470 C.3    65  GLN65       0.0905
     36  CD        13.7870   60.2000  -36.3620 C.2    65  GLN65       0.2608
     37  OE1       12.6320   60.5140  -36.0770 O.2    65  GLN65      -0.2717
     38  NE2       14.6340   61.0390  -36.9500 N.am   65  GLN65      -0.0878
     39  N         15.5010   55.8900  -32.2310 N.am   66  PHE66      -0.1962
     40  CA        16.1200   55.6660  -30.9320 C.3    66  PHE66       0.1771
     41  C         16.6190   54.2260  -30.8940 C.2    66  PHE66       0.2619
     42  O         17.8100   53.9810  -31.0690 O.2    66  PHE66      -0.2715
     43  CB        15.1320   55.9480  -29.7890 C.3    66  PHE66       0.0574
     44  CG        15.6740   55.6200  -28.4160 C.ar   66  PHE66      -0.0200
     45  CD1       17.0490   55.6100  -28.1710 C.ar   66  PHE66      -0.0042
     46  CD2       14.8080   55.3030  -27.3700 C.ar   66  PHE66      -0.0042
     47  CE1       17.5490   55.2840  -26.9110 C.ar   66  PHE66      -0.0003
     48  CE2       15.3020   54.9760  -26.1060 C.ar   66  PHE66      -0.0003
     49  CZ        16.6740   54.9660  -25.8780 C.ar   66  PHE66      -0.0000
     50  N         15.7190   53.2670  -30.7060 N.am   67  MET67      -0.1977
     51  CA        16.1480   51.8770  -30.6570 C.3    67  MET67       0.1605
     52  C         15.0110   50.8620  -30.6800 C.2    67  MET67       0.2287
     53  O         13.8380   51.2260  -30.5580 O.2    67  MET67      -0.2864
     54  CB        17.0130   51.6610  -29.4100 C.3    67  MET67       0.0413
     55  CG        16.3320   51.9790  -28.0840 C.3    67  MET67       0.0598
     56  SD        15.1640   50.7090  -27.5290 S.3    67  MET67      -0.1393
     57  CE        13.5900   51.6270  -27.5750 C.3    67  MET67       0.0692
     58  N         13.8580   47.3880  -28.7590 N.3    69  GLN69      -0.1245
     59  CA        14.1310   46.6060  -27.5560 C.3    69  GLN69       0.1566
     60  C         13.3690   45.2890  -27.4890 C.2    69  GLN69       0.2260
     61  O         12.1840   45.2230  -27.8210 O.2    69  GLN69      -0.2867
     62  CB        13.8000   47.4410  -26.3090 C.3    69  GLN69       0.0367
     63  CG        14.0020   46.7010  -24.9840 C.3    69  GLN69       0.0905
     64  CD        13.6990   47.5680  -23.7780 C.2    69  GLN69       0.2608
     65  OE1       13.3890   48.7510  -23.9130 O.2    69  GLN69      -0.2717
     66  NE2       13.7920   46.9820  -22.5880 N.am   69  GLN69      -0.0878
     67  N          7.1470   41.8610  -21.9050 N.3    77  ASN77      -0.1225
     68  CA         6.6790   43.2390  -21.8010 C.3    77  ASN77       0.1785
     69  C          7.6920   44.1610  -21.1330 C.2    77  ASN77       0.2598
     70  O          7.4110   45.3370  -20.8990 O.2    77  ASN77      -0.2718
     71  CB         5.3410   43.3040  -21.0500 C.3    77  ASN77       0.1169
     72  CG         5.3910   42.6150  -19.7020 C.2    77  ASN77       0.2627
     73  OD1        6.3870   42.6990  -18.9820 O.2    77  ASN77      -0.2716
     74  ND2        4.3020   41.9380  -19.3440 N.am   77  ASN77      -0.0877
     75  N          8.8720   43.6250  -20.8310 N.am   78  GLY78      -0.1942
     76  CA         9.9090   44.4260  -20.2080 C.3    78  GLY78       0.2014
     77  C         10.0920   44.1850  -18.7210 C.2    78  GLY78       0.2640
     78  O         11.1570   44.4660  -18.1770 O.2    78  GLY78      -0.2714
     79  N          9.0700   43.6520  -18.0570 N.am   79  SER79      -0.1935
     80  CA         9.1560   43.4080  -16.6200 C.3    79  SER79       0.2055
     81  C          9.9250   42.1440  -16.2530 C.2    79  SER79       0.2643
     82  O         10.3160   41.9670  -15.0980 O.2    79  SER79      -0.2714
     83  CB         7.7530   43.3350  -16.0140 C.3    79  SER79       0.2130
     84  OG         7.0400   42.2150  -16.5110 O.3    79  SER79      -0.2179
     85  N         10.1490   41.2720  -17.2320 N.am   80  GLY80      -0.1954
     86  CA        10.8560   40.0320  -16.9660 C.3    80  GLY80       0.1869
     87  C         12.2510   39.9200  -17.5570 C.2    80  GLY80       0.2309
     88  O         12.9340   40.9190  -17.7640 O.2    80  GLY80      -0.2863
     89  N         18.8520   35.6640  -12.5160 N.3    87  ARG87      -0.1245
     90  CA        17.9560   36.7780  -12.7950 C.3    87  ARG87       0.1563
     91  C         18.7090   38.0070  -13.2980 C.2    87  ARG87       0.2260
     92  O         18.1460   38.8360  -14.0140 O.2    87  ARG87      -0.2867
     93  CB        17.1530   37.1510  -11.5440 C.3    87  ARG87       0.0307
     94  CG        16.0640   38.1970  -11.8020 C.3    87  ARG87       0.0489
     95  CD        15.0450   37.7030  -12.8380 C.3    87  ARG87       0.2205
     96  NE        14.0000   38.6870  -13.1210 N.pl3  87  ARG87      -0.0865
     97  CZ        14.1990   39.8370  -13.7640 C.cat  87  ARG87       0.5346
     98  NH1       15.4110   40.1600  -14.2030 N.pl3  87  ARG87       0.1354
     99  NH2       13.1840   40.6710  -13.9610 N.pl3  87  ARG87       0.1354
    100  N         19.9260   46.0190  -22.1240 N.3   107  ALA107     -0.1231
    101  CA        18.9490   46.8600  -21.4520 C.3   107  ALA107      0.1694
    102  C         19.1310   46.4570  -19.9890 C.2   107  ALA107      0.2592
    103  O         19.6560   45.3770  -19.7080 O.2   107  ALA107     -0.2718
    104  CB        17.5370   46.5190  -21.9220 C.3   107  ALA107      0.0304
    105  N         18.7250   47.3070  -19.0540 N.am  108  ASN108     -0.1960
    106  CA        18.8720   46.9540  -17.6460 C.3   108  ASN108      0.1819
    107  C         17.9560   47.7930  -16.7670 C.2   108  ASN108      0.2621
    108  O         17.1670   48.5870  -17.2690 O.2   108  ASN108     -0.2715
    109  CB        20.3320   47.1250  -17.2010 C.3   108  ASN108      0.1195
    110  CG        20.8040   48.5660  -17.2650 C.2   108  ASN108      0.2630
    111  OD1       20.1430   49.4680  -16.7520 O.2   108  ASN108     -0.2716
    112  ND2       21.9620   48.7860  -17.8860 N.am  108  ASN108     -0.0877
    113  N         18.0550   47.6000  -15.4570 N.am  109  ALA109     -0.1963
    114  CA        17.2440   48.3470  -14.5050 C.3   109  ALA109      0.1728
    115  C         18.1840   48.9940  -13.4960 C.2   109  ALA109      0.2616
    116  O         17.9300   48.9930  -12.2920 O.2   109  ALA109     -0.2715
    117  CB        16.2660   47.4170  -13.8000 C.3   109  ALA109      0.0334
    118  N         19.2750   49.5500  -14.0040 N.am  110  GLY110     -0.1955
    119  CA        20.2470   50.1840  -13.1390 C.3   110  GLY110      0.1869
    120  C         21.5210   49.3630  -13.0850 C.2   110  GLY110      0.2309
    121  O         21.6120   48.3150  -13.7300 O.2   110  GLY110     -0.2863
    122  N         22.3510   44.9250  -13.4590 N.3   113  THR113     -0.1218
    123  CA        21.0580   44.2570  -13.5140 C.3   113  THR113      0.1862
    124  C         20.7550   43.7000  -14.9040 C.2   113  THR113      0.2287
    125  O         19.6030   43.6750  -15.3390 O.2   113  THR113     -0.2866
    126  CB        19.9170   45.2070  -13.0860 C.3   113  THR113      0.1770
    127  OG1       19.8590   46.3210  -13.9800 O.3   113  THR113     -0.2211
    128  CG2       20.1500   45.7170  -11.6650 C.3   113  THR113      0.0375
    129  N         20.1020   41.0080  -17.7610 N.3   115  SER115     -0.1217
    130  CA        19.4410   39.7130  -17.7960 C.3   115  SER115      0.1889
    131  C         19.4410   39.2160  -19.2390 C.2   115  SER115      0.2288
    132  O         20.4830   38.8120  -19.7550 O.2   115  SER115     -0.2866
    133  CB        18.0090   39.8050  -17.2480 C.3   115  SER115      0.2089
    134  OG        17.2400   40.7660  -17.9480 O.3   115  SER115     -0.2183
    135  N         17.2780   41.0100  -21.6940 N.3   117  GLN117     -0.1245
    136  CA        16.8280   42.1080  -22.5340 C.3   117  GLN117      0.1566
    137  C         17.9780   42.8790  -23.1550 C.2   117  GLN117      0.2260
    138  O         19.0000   43.1340  -22.5140 O.2   117  GLN117     -0.2867
    139  CB        15.9080   43.0350  -21.7430 C.3   117  GLN117      0.0367
    140  CG        14.5720   42.3730  -21.4200 C.3   117  GLN117      0.0905
    141  CD        13.5840   43.3180  -20.7840 C.2   117  GLN117      0.2608
    142  OE1       13.1630   44.2970  -21.3990 O.2   117  GLN117     -0.2717
    143  NE2       13.2100   43.0350  -19.5390 N.am  117  GLN117     -0.0878
    144  N         18.8570   45.7920  -26.7800 N.3   119  PHE119     -0.1241
    145  CA        18.2870   46.7390  -27.7220 C.3   119  PHE119      0.1605
    146  C         19.2630   46.9770  -28.8630 C.2   119  PHE119      0.2264
    147  O         20.4760   46.7940  -28.7050 O.2   119  PHE119     -0.2867
    148  CB        17.8960   48.0500  -27.0190 C.3   119  PHE119      0.0534
    149  CG        19.0510   48.8300  -26.4420 C.ar  119  PHE119     -0.0203
    150  CD1       19.5380   48.5430  -25.1660 C.ar  119  PHE119     -0.0042
    151  CD2       19.6030   49.8990  -27.1410 C.ar  119  PHE119     -0.0042
    152  CE1       20.5530   49.3160  -24.5920 C.ar  119  PHE119     -0.0003
    153  CE2       20.6180   50.6780  -26.5760 C.ar  119  PHE119     -0.0003
    154  CZ        21.0930   50.3870  -25.2980 C.ar  119  PHE119     -0.0000
    155  N         24.1080   59.2310  -24.6480 N.3   127  TRP127     -0.1227
    156  CA        23.6140   59.3750  -23.2840 C.3   127  TRP127      0.1737
    157  C         23.5070   58.0430  -22.5490 C.2   127  TRP127      0.2595
    158  O         23.2360   58.0130  -21.3450 O.2   127  TRP127     -0.2718
    159  CB        22.2600   60.1050  -23.2880 C.3   127  TRP127      0.0564
    160  CG        21.1940   59.4280  -24.0880 C.ar  127  TRP127      0.0003
    161  CD1       20.2810   58.5120  -23.6400 C.ar  127  TRP127      0.0946
    162  CD2       20.9550   59.5780  -25.4950 C.ar  127  TRP127      0.0152
    163  NE1       19.4890   58.0810  -24.6830 N.ar  127  TRP127     -0.2442
    164  CE2       19.8820   58.7180  -25.8320 C.ar  127  TRP127      0.0810
    165  CE3       21.5440   60.3560  -26.5030 C.ar  127  TRP127      0.0012
    166  CZ2       19.3880   58.6130  -27.1380 C.ar  127  TRP127      0.0191
    167  CZ3       21.0520   60.2520  -27.8030 C.ar  127  TRP127      0.0001
    168  CH2       19.9840   59.3850  -28.1080 C.ar  127  TRP127      0.0015
    169  N         23.7390   56.9460  -23.2690 N.am  128  LEU128     -0.1980
    170  CA        23.6730   55.6100  -22.6730 C.3   128  LEU128      0.1596
    171  C         25.0620   55.0260  -22.4220 C.2   128  LEU128      0.2287
    172  O         25.1990   53.9810  -21.7810 O.2   128  LEU128     -0.2864
    173  CB        22.8760   54.6610  -23.5740 C.3   128  LEU128      0.0297
    174  CG        21.4220   55.0400  -23.8590 C.3   128  LEU128      0.0022
    175  CD1       20.7620   53.9680  -24.7210 C.3   128  LEU128      0.0001
    176  CD2       20.6760   55.2090  -22.5410 C.3   128  LEU128      0.0001
    177  N         26.4460   53.2610  -19.1800 N.3   131  LYS131     -0.1231
    178  CA        25.2890   52.7890  -18.4290 C.3   131  LYS131      0.1693
    179  C         24.7380   51.4860  -18.9890 C.2   131  LYS131      0.2592
    180  O         24.0890   50.7210  -18.2770 O.2   131  LYS131     -0.2718
    181  CB        24.2070   53.8660  -18.4350 C.3   131  LYS131      0.0285
    182  CG        24.7020   55.2180  -17.9250 C.3   131  LYS131      0.0035
    183  CD        23.6480   56.3000  -18.1170 C.3   131  LYS131      0.0206
    184  CE        24.1870   57.6690  -17.7260 C.3   131  LYS131      0.1093
    185  NZ        24.5900   57.7130  -16.2920 N.3   131  LYS131     -0.1314
    186  N         25.0020   51.2360  -20.2680 N.am  132  HIS132     -0.1976
    187  CA        24.5450   50.0180  -20.9310 C.3   132  HIS132      0.1656
    188  C         25.7070   49.3860  -21.6830 C.2   132  HIS132      0.2291
    189  O         26.4400   50.0680  -22.3990 O.2   132  HIS132     -0.2864
    190  CB        23.3950   50.3470  -21.8810 C.3   132  HIS132      0.0771
    191  CG        22.1710   50.8390  -21.1740 C.ar  132  HIS132      0.0820
    192  ND1       21.1370   50.0030  -20.8120 N.ar  132  HIS132     -0.2267
    193  CD2       21.8530   52.0630  -20.6900 C.ar  132  HIS132      0.1154
    194  CE1       20.2370   50.6910  -20.1340 C.ar  132  HIS132      0.1986
    195  NE2       20.6470   51.9430  -20.0460 N.ar  132  HIS132     -0.2212
@<TRIPOS>BOND
     1    38    36   am
     2    36    37    2
     3    36    35    1
     4    35    34    1
     5    34    31    1
     6    30    31    1
     7    31    32    1
     8    32    33    2
     9    32    39   am
    10    39    40    1
    11    24    25    2
    12    24    23    1
    13    42    41    2
    14    40    41    1
    15    40    43    1
    16    41    50   am
    17    50    51    1
    18    52    51    1
    19    52    53    2
    20    51    54    1
    21    23    22    1
    22    23    26    1
    23    43    44    1
    24    54    55    1
    25    28    26    1
    26    26    27    1
    27   146   147    2
    28   146   145    1
    29    58    59    1
    30    44    45   ar
    31    44    46   ar
    32    14    13    2
    33    13    12    1
    34    45    47   ar
    35   168   167   ar
    36   168   166   ar
    37    55    56    1
    38    27    29    1
    39    61    60    2
    40   167   165   ar
    41   145   148    1
    42   145   144    1
    43     1     2    1
    44    57    56    1
    45    59    60    1
    46    59    62    1
    47    46    48   ar
    48    11    12    1
    49    11     3   am
    50    12    15    1
    51   151   153   ar
    52   151   149   ar
    53   166   164   ar
    54   148   149    1
    55     2     3    1
    56     2     5    1
    57    47    49   ar
    58     3     4    2
    59   153   154   ar
    60   165   162   ar
    61   149   150   ar
    62    62    63    1
    63    48    49   ar
    64   164   162   ar
    65   164   163   ar
    66    15    16    1
    67    16    17    1
    68     5     6    1
    69   162   160   ar
    70   154   152   ar
    71   150   152   ar
    72    63    64    1
    73   175   174    1
    74     7     6   ar
    75     7     9   ar
    76   163   161   ar
    77     6     8   ar
    78   155   156    1
    79   160   161   ar
    80   160   159    1
    81    17    18    1
    82    20    19    1
    83    65    64    2
    84     9    10   ar
    85   174   173    1
    86   174   176    1
    87    18    19    2
    88     8    10   ar
    89    64    66   am
    90    19    21    1
    91   173   170    1
    92   159   156    1
    93   156   157    1
    94   169   170    1
    95   169   157   am
    96   137   136    1
    97   137   138    2
    98   170   171    1
    99   157   158    2
   100   136   139    1
   101   136   135    1
   102   171   172    2
   103   189   188    2
   104   100   101    1
   105   104   101    1
   106    67    68    1
   107   190   191    1
   108   190   187    1
   109    68    69    1
   110    68    71    1
   111   139   140    1
   112   188   187    1
   113   101   102    1
   114   140   141    1
   115   142   141    2
   116   191   192   ar
   117   191   193   ar
   118    69    70    2
   119    69    75   am
   120    71    72    1
   121   187   186    1
   122    75    76    1
   123   192   194   ar
   124   141   143   am
   125   193   195   ar
   126   186   179   am
   127    76    77    1
   128   194   195   ar
   129   102   103    2
   130   102   105   am
   131   132   131    2
   132    72    74   am
   133    72    73    2
   134   131   130    1
   135   177   178    1
   136   105   106    1
   137   179   178    1
   138   179   180    2
   139    77    78    2
   140    77    79   am
   141   181   178    1
   142   181   182    1
   143   183   182    1
   144   183   184    1
   145    79    80    1
   146   134   133    1
   147   112   110   am
   148   130   129    1
   149   130   133    1
   150    88    87    2
   151   184   185    1
   152   106   109    1
   153   106   107    1
   154    87    86    1
   155   108   107    2
   156   110   109    1
   157   110   111    2
   158    85    86    1
   159    85    81   am
   160   107   113   am
   161    80    81    1
   162    80    83    1
   163    84    83    1
   164    81    82    2
   165   113   114    1
   166   125   124    2
   167   124   123    1
   168   114   117    1
   169   114   115    1
   170    98    97    1
   171    92    91    2
   172   118   115   am
   173   118   119    1
   174   127   126    1
   175    99    97    1
   176    97    96    2
   177   121   120    2
   178   123   122    1
   179   123   126    1
   180   115   116    2
   181    91    90    1
   182   119   120    1
   183    96    95    1
   184   126   128    1
   185    95    94    1
   186    90    89    1
   187    90    93    1
   188    94    93    1
