@<TRIPOS>MOLECULE
tmp/1qnoA03.pdb
 116 114 0 0 0
SMALL
GASTEIGER

@<TRIPOS>ATOM
      1  N          5.5310   28.6560    4.6760 N.3    56  TRP56      -0.1241
      2  CA         6.8720   28.0850    4.4390 C.3    56  TRP56       0.1605
      3  C          7.7140   29.0790    3.6360 C.2    56  TRP56       0.2264
      4  O          7.3040   29.5480    2.5800 O.2    56  TRP56      -0.2867
      5  CB         6.7550   26.7200    3.7790 C.3    56  TRP56       0.0550
      6  CG         6.3440   25.5690    4.6660 C.ar   56  TRP56       0.0003
      7  CD1        6.1820   24.2980    4.1660 C.ar   56  TRP56       0.0946
      8  CD2        6.1740   25.4520    6.0740 C.ar   56  TRP56       0.0152
      9  NE1        5.8870   23.4090    5.1940 N.ar   56  TRP56      -0.2442
     10  CE2        5.8980   24.0720    6.3700 C.ar   56  TRP56       0.0810
     11  CE3        6.2030   26.3360    7.1440 C.ar   56  TRP56       0.0012
     12  CZ2        5.6050   23.6440    7.6620 C.ar   56  TRP56       0.0191
     13  CZ3        5.9130   25.9170    8.4400 C.ar   56  TRP56       0.0001
     14  CH2        5.6640   24.5570    8.6940 C.ar   56  TRP56       0.0015
     15  N         12.9850   23.0770    6.5230 N.3   112  ASN112     -0.1240
     16  CA        12.1330   22.1720    7.3240 C.3   112  ASN112      0.1653
     17  C         13.0270   21.1240    8.0290 C.2   112  ASN112      0.2266
     18  O         13.8800   20.4800    7.3690 O.2   112  ASN112     -0.2867
     19  CB        11.2000   21.3850    6.4200 C.3   112  ASN112      0.1155
     20  CG         9.9750   20.8230    7.1020 C.2   112  ASN112      0.2627
     21  OD1        9.8970   20.7990    8.3230 O.2   112  ASN112     -0.2716
     22  ND2        9.0040   20.3120    6.3190 N.am  112  ASN112     -0.0877
     23  N         11.7190   18.3330    8.8410 N.3   114  TRP114     -0.1241
     24  CA        11.1120   17.1820    8.1960 C.3   114  TRP114      0.1605
     25  C         11.3350   17.1810    6.6890 C.2   114  TRP114      0.2264
     26  O         11.6130   18.1930    6.1090 O.2   114  TRP114     -0.2867
     27  CB         9.6110   17.0240    8.5090 C.3   114  TRP114      0.0550
     28  CG         9.3740   17.3120    9.9750 C.ar  114  TRP114      0.0003
     29  CD1        8.7920   18.4090   10.5300 C.ar  114  TRP114      0.0946
     30  CD2        9.8260   16.5140   11.0720 C.ar  114  TRP114      0.0152
     31  NE1        8.7970   18.3240   11.9120 N.ar  114  TRP114     -0.2442
     32  CE2        9.4100   17.1580   12.2680 C.ar  114  TRP114      0.0810
     33  CE3       10.5070   15.3060   11.1680 C.ar  114  TRP114      0.0012
     34  CZ2        9.6870   16.6280   13.5250 C.ar  114  TRP114      0.0191
     35  CZ3       10.7580   14.7600   12.4050 C.ar  114  TRP114      0.0001
     36  CH2       10.3310   15.4210   13.5720 C.ar  114  TRP114      0.0015
     37  N          9.2320   17.0140    4.2450 N.3   116  ASP116     -0.1239
     38  CA         8.1600   17.5680    3.4500 C.3   116  ASP116      0.1674
     39  C          8.7360   18.8210    2.8060 C.2   116  ASP116      0.2266
     40  O          9.3180   19.6480    3.5310 O.2   116  ASP116     -0.2867
     41  CB         6.9160   17.9930    4.3110 C.3   116  ASP116      0.1410
     42  CG         6.5720   16.7710    5.1690 C.2   116  ASP116      0.3668
     43  OD1        6.2270   15.7480    4.5670 O.co2 116  ASP116     -0.2456
     44  OD2        6.6830   16.8110    6.3830 O.co2 116  ASP116     -0.2456
     45  N         11.6790   24.9950   10.5830 N.3   168  ASN168     -0.1225
     46  CA        10.4360   24.4680   11.1290 C.3   168  ASN168      0.1785
     47  C         10.8000   23.2080   11.9630 C.2   168  ASN168      0.2597
     48  O         11.2300   22.1500   11.4470 O.2   168  ASN168     -0.2718
     49  CB         9.4470   24.1000   10.0460 C.3   168  ASN168      0.1169
     50  CG         8.2290   23.3950   10.6170 C.2   168  ASN168      0.2627
     51  OD1        7.5940   23.9600   11.4980 O.2   168  ASN168     -0.2716
     52  ND2        7.9420   22.2210   10.0630 N.am  168  ASN168     -0.0877
     53  N         10.5650   23.3520   13.2430 N.am  169  GLU169     -0.1979
     54  CA        10.7710   22.3090   14.2490 C.3   169  GLU169      0.1602
     55  C         12.1180   21.6350   14.1460 C.2   169  GLU169      0.2287
     56  O         12.2500   20.3960   14.1970 O.2   169  GLU169     -0.2864
     57  CB         9.6660   21.2480   14.1230 C.3   169  GLU169      0.0415
     58  CG         8.2730   21.8710   14.0700 C.3   169  GLU169      0.1163
     59  CD         7.1200   20.9140   14.1700 C.2   169  GLU169      0.3649
     60  OE1        7.1110   19.8320   13.5410 O.co2 169  GLU169     -0.2457
     61  OE2        6.1180   21.2590   14.8910 O.co2 169  GLU169     -0.2457
     62  N          1.2770   18.8630   20.2150 N.3   243  TYR243     -0.1241
     63  CA         0.5130   17.8100   19.5460 C.3   243  TYR243      0.1605
     64  C          0.4450   16.5570   20.4120 C.2   243  TYR243      0.2264
     65  O          1.1760   15.5820   20.2150 O.2   243  TYR243     -0.2867
     66  CB         1.1360   17.4090   18.1850 C.3   243  TYR243      0.0534
     67  CG         1.0730   18.4780   17.0880 C.ar  243  TYR243     -0.0201
     68  CD1       -0.0980   18.6740   16.3500 C.ar  243  TYR243     -0.0009
     69  CD2        2.1420   19.3290   16.8750 C.ar  243  TYR243     -0.0009
     70  CE1       -0.1470   19.6350   15.3860 C.ar  243  TYR243      0.0417
     71  CE2        2.0650   20.3230   15.8930 C.ar  243  TYR243      0.0417
     72  CZ         0.9040   20.4720   15.1420 C.ar  243  TYR243      0.1957
     73  OH         0.8890   21.4400   14.2150 O.3   243  TYR243     -0.2866
     74  N          2.2770   26.4510   16.9820 N.3   276  GLU276     -0.1245
     75  CA         1.4820   25.4280   16.3480 C.3   276  GLU276      0.1567
     76  C          0.7830   24.6120   17.4320 C.2   276  GLU276      0.2260
     77  O          1.3620   24.2690   18.4820 O.2   276  GLU276     -0.2867
     78  CB         2.2730   24.4240   15.4740 C.3   276  GLU276      0.0388
     79  CG         3.0600   24.8570   14.2520 C.3   276  GLU276      0.1160
     80  CD         3.6550   23.6240   13.5460 C.2   276  GLU276      0.3649
     81  OE1        3.1970   22.4430   13.7240 O.co2 276  GLU276     -0.2457
     82  OE2        4.6140   23.8480   12.7570 O.co2 276  GLU276     -0.2457
     83  N         -2.7190   25.3150   14.1640 N.3   306  TRP306     -0.1298
     84  CA        -2.2690   24.4760   13.0890 C.3   306  TRP306      0.1291
     85  C         -3.4390   23.7300   12.4100 C.3   306  TRP306      0.2013
     86  O         -4.0990   23.0200   13.2370 O.3   306  TRP306     -0.2188
     87  CB        -1.1740   23.4450   13.2710 C.3   306  TRP306      0.0497
     88  CG        -0.8450   22.6980   11.9950 C.ar  306  TRP306     -0.0001
     89  CD1       -1.4940   21.5810   11.5190 C.ar  306  TRP306      0.0946
     90  CD2        0.1830   23.0110   11.0510 C.ar  306  TRP306      0.0152
     91  NE1       -0.9400   21.1920   10.3510 N.ar  306  TRP306     -0.2442
     92  CE2        0.0980   22.0470   10.0130 C.ar  306  TRP306      0.0810
     93  CE3        1.1410   24.0330   10.9300 C.ar  306  TRP306      0.0012
     94  CZ2        0.9470   22.0390    8.9180 C.ar  306  TRP306      0.0191
     95  CZ3        1.9880   24.0170    9.8380 C.ar  306  TRP306      0.0001
     96  CH2        1.9140   23.0380    8.8250 C.ar  306  TRP306      0.0015
     97  N         -4.9850   18.5360    6.2260 N.3   321  ASP321     -0.1239
     98  CA        -4.6440   17.3670    7.0240 C.3   321  ASP321      0.1674
     99  C         -5.7010   17.2330    8.1010 C.2   321  ASP321      0.2266
    100  O         -6.6270   18.0280    8.1120 O.2   321  ASP321     -0.2867
    101  CB        -3.1970   17.4950    7.5420 C.3   321  ASP321      0.1410
    102  CG        -2.9940   18.5200    8.6430 C.2   321  ASP321      0.3668
    103  OD1       -3.9720   19.1410    9.1300 O.co2 321  ASP321     -0.2456
    104  OD2       -1.8200   18.7420    9.0060 O.co2 321  ASP321     -0.2456
    105  N         -5.9060   18.1870   11.0760 N.3   323  TYR323     -0.1241
    106  CA        -5.9510   19.3170   11.9490 C.3   323  TYR323      0.1605
    107  C         -6.5710   20.5380   11.3000 C.2   323  TYR323      0.2264
    108  O         -6.7720   21.5770   11.9580 O.2   323  TYR323     -0.2867
    109  CB        -4.5570   19.7530   12.4030 C.3   323  TYR323      0.0534
    110  CG        -3.7790   18.6760   13.1210 C.ar  323  TYR323     -0.0201
    111  CD1       -4.1420   18.2850   14.3920 C.ar  323  TYR323     -0.0009
    112  CD2       -2.7340   18.0090   12.5220 C.ar  323  TYR323     -0.0009
    113  CE1       -3.4650   17.2850   15.0760 C.ar  323  TYR323      0.0417
    114  CE2       -2.0220   17.0200   13.1620 C.ar  323  TYR323      0.0417
    115  CZ        -2.4370   16.6330   14.4590 C.ar  323  TYR323      0.1957
    116  OH        -1.7320   15.6840   15.1070 O.3   323  TYR323     -0.2866
@<TRIPOS>BOND
     1     4     3    2
     2    39    38    1
     3    39    40    2
     4    38    37    1
     5    38    41    1
     6     3     2    1
     7     5     2    1
     8     5     6    1
     9     7     6   ar
    10     7     9   ar
    11    41    42    1
    12     2     1    1
    13    43    42   ar
    14     6     8   ar
    15    42    44   ar
    16     9    10   ar
    17     8    10   ar
    18     8    11   ar
    19    26    25    2
    20    97    98    1
    21    22    20   am
    22    10    12   ar
    23    19    20    1
    24    19    16    1
    25    15    16    1
    26    25    24    1
    27    98   101    1
    28    98    99    1
    29    20    21    2
    30    11    13   ar
    31    16    17    1
    32    18    17    2
    33   101   102    1
    34    12    14   ar
    35    99   100    2
    36    24    27    1
    37    24    23    1
    38    13    14   ar
    39    27    28    1
    40   102   104   ar
    41   102   103   ar
    42    96    94   ar
    43    96    95   ar
    44    94    92   ar
    45    95    93   ar
    46    28    29   ar
    47    28    30   ar
    48    92    91   ar
    49    92    90   ar
    50    49    50    1
    51    49    46    1
    52    52    50   am
    53    91    89   ar
    54    29    31   ar
    55    45    46    1
    56    50    51    2
    57    93    90   ar
    58    90    88   ar
    59    30    33   ar
    60    30    32   ar
    61   105   106    1
    62    46    47    1
    63    33    35   ar
    64   107   106    1
    65   107   108    2
    66    48    47    2
    67    89    88   ar
    68    31    32   ar
    69   106   109    1
    70    47    53   am
    71    88    87    1
    72    32    34   ar
    73   109   110    1
    74    35    36   ar
    75    85    84    1
    76    85    86    1
    77   112   110   ar
    78   112   114   ar
    79    82    80   ar
    80    84    87    1
    81    84    83    1
    82   110   111   ar
    83   114   115   ar
    84    53    54    1
    85    34    36   ar
    86    60    59   ar
    87    80    81   ar
    88    80    79    1
    89    58    57    1
    90    58    59    1
    91    57    54    1
    92    55    56    2
    93    55    54    1
    94    59    61   ar
    95    73    72    1
    96    79    78    1
    97   111   113   ar
    98   115   113   ar
    99   115   116    1
   100    72    70   ar
   101    72    71   ar
   102    70    68   ar
   103    78    75    1
   104    71    69   ar
   105    75    74    1
   106    75    76    1
   107    68    67   ar
   108    69    67   ar
   109    67    66    1
   110    76    77    2
   111    66    63    1
   112    63    62    1
   113    63    64    1
   114    65    64    2
