@<TRIPOS>MOLECULE
tmp/1qnqA00.pdb
 111 110 0 0 0
SMALL
GASTEIGER

@<TRIPOS>ATOM
      1  N         11.2980   22.9740   13.4320 N.3   169  GLU169     -0.1196
      2  CA        11.5390   21.9010   14.3680 C.3   169  GLU169      0.1783
      3  C         12.9360   21.3240   14.3460 C.2   169  GLU169      0.2306
      4  O         13.1290   20.0920   14.2990 O.2   169  GLU169     -0.2863
      5  CB        10.4550   20.8000   14.2110 C.2   169  GLU169      0.0071
      6  CG         9.0110   21.2480   14.4090 C.2   169  GLU169      0.0834
      7  CD         7.9840   20.1500   14.6270 C.2   169  GLU169      0.3877
      8  OE1        8.2670   18.9360   14.4050 O.co2 169  GLU169     -0.2406
      9  OE2        6.8320   20.4390   15.0650 O.co2 169  GLU169     -0.2406
     10  N         16.1320   19.3890   15.2020 N.3   171  ARG171     -0.1245
     11  CA        16.5140   18.3520   16.1540 C.3   171  ARG171      0.1563
     12  C         17.9200   17.8110   15.8810 C.2   171  ARG171      0.2260
     13  O         18.3650   17.8740   14.7350 O.2   171  ARG171     -0.2867
     14  CB        15.5740   17.1380   16.1920 C.3   171  ARG171      0.0307
     15  CG        14.1350   17.3500   16.6580 C.3   171  ARG171      0.0489
     16  CD        13.3460   16.0280   16.6920 C.3   171  ARG171      0.2205
     17  NE        11.9690   16.1080   17.1830 N.pl3 171  ARG171     -0.0865
     18  CZ        11.2050   15.0570   17.4810 C.cat 171  ARG171      0.5346
     19  NH1       11.6370   13.7960   17.3510 N.pl3 171  ARG171      0.1354
     20  NH2        9.9500   15.2210   17.9060 N.pl3 171  ARG171      0.1354
     21  N         10.5160   22.8300   18.7920 N.3   205  GLU205     -0.1245
     22  CA         9.3280   22.2950   19.4330 C.3   205  GLU205      0.1567
     23  C          9.2660   22.6030   20.9440 C.2   205  GLU205      0.2260
     24  O          8.2040   22.4610   21.5670 O.2   205  GLU205     -0.2867
     25  CB         9.2690   20.7650   19.2970 C.3   205  GLU205      0.0388
     26  CG         9.1070   20.2400   17.8460 C.3   205  GLU205      0.1160
     27  CD         9.5950   18.8040   17.7320 C.2   205  GLU205      0.3649
     28  OE1       10.8190   18.6090   17.5270 O.co2 205  GLU205     -0.2457
     29  OE2        8.8080   17.8220   17.8580 O.co2 205  GLU205     -0.2457
     30  N          1.7750   18.3690   20.2050 N.3   243  TYR243     -0.1241
     31  CA         1.0380   17.2880   19.4940 C.3   243  TYR243      0.1605
     32  C          0.9510   16.0190   20.3520 C.2   243  TYR243      0.2264
     33  O          1.6880   15.0170   20.1880 O.2   243  TYR243     -0.2867
     34  CB         1.7670   16.9890   18.1730 C.3   243  TYR243      0.0534
     35  CG         1.7120   17.9660   17.0200 C.ar  243  TYR243     -0.0201
     36  CD1        0.5520   18.0390   16.2540 C.ar  243  TYR243     -0.0009
     37  CD2        2.7540   18.8220   16.6860 C.ar  243  TYR243     -0.0009
     38  CE1        0.4290   18.9020   15.1750 C.ar  243  TYR243      0.0417
     39  CE2        2.6680   19.6980   15.6190 C.ar  243  TYR243      0.0417
     40  CZ         1.5050   19.7040   14.8530 C.ar  243  TYR243      0.1957
     41  OH         1.3590   20.5720   13.7950 O.3   243  TYR243     -0.2866
     42  N          0.8850   12.2960   18.9800 N.3   246  SER246     -0.1202
     43  CA         2.0850   11.7580   18.3810 C.3   246  SER246      0.2020
     44  C          3.1200   11.4790   19.4780 C.2   246  SER246      0.2618
     45  O          4.0320   10.6790   19.3160 O.2   246  SER246     -0.2717
     46  CB         2.7050   12.7280   17.3600 C.3   246  SER246      0.2103
     47  OG         1.7700   13.2990   16.4450 O.3   246  SER246     -0.2182
     48  N          3.0210   12.1250   20.6300 N.am  247  TRP247     -0.1975
     49  CA         3.9460   12.0860   21.7300 C.3   247  TRP247      0.1640
     50  C          3.6120   11.0980   22.8440 C.2   247  TRP247      0.2290
     51  O          4.3520   10.9770   23.8350 O.2   247  TRP247     -0.2864
     52  CB         4.0550   13.5270   22.2810 C.3   247  TRP247      0.0576
     53  CG         4.6740   14.5540   21.3860 C.ar  247  TRP247      0.0006
     54  CD1        5.2790   14.3600   20.1650 C.ar  247  TRP247      0.0946
     55  CD2        4.8270   15.9610   21.6560 C.ar  247  TRP247      0.0152
     56  NE1        5.7590   15.5170   19.6680 N.ar  247  TRP247     -0.2442
     57  CE2        5.5190   16.5400   20.5590 C.ar  247  TRP247      0.0810
     58  CE3        4.4500   16.7780   22.7330 C.ar  247  TRP247      0.0012
     59  CZ2        5.8190   17.8900   20.4970 C.ar  247  TRP247      0.0191
     60  CZ3        4.7820   18.1350   22.6630 C.ar  247  TRP247      0.0001
     61  CH2        5.4540   18.6790   21.5640 C.ar  247  TRP247      0.0015
     62  N          2.6090   26.2470   17.0070 N.3   276  GLU276     -0.1253
     63  CA         1.9840   25.1830   16.2130 C.3   276  GLU276      0.1468
     64  C          1.3370   24.1490   17.1160 C.3   276  GLU276      0.2054
     65  O          2.0910   23.6770   17.9960 O.3   276  GLU276     -0.2184
     66  CB         3.0680   24.5480   15.3310 C.2   276  GLU276      0.0019
     67  CG         2.7730   23.4440   14.3920 C.2   276  GLU276      0.0831
     68  CD         3.8400   22.9840   13.4420 C.2   276  GLU276      0.3877
     69  OE1        4.8510   23.6230   12.9900 O.co2 276  GLU276     -0.2406
     70  OE2        3.6380   21.8060   13.0680 O.co2 276  GLU276     -0.2406
     71  N         -2.4580   25.0320   14.1200 N.3   306  TRP306     -0.1241
     72  CA        -2.2140   24.2870   12.8720 C.3   306  TRP306      0.1605
     73  C         -3.5280   23.6160   12.4660 C.2   306  TRP306      0.2264
     74  O         -4.0370   22.8130   13.2620 O.2   306  TRP306     -0.2867
     75  CB        -1.0760   23.2390   13.0470 C.3   306  TRP306      0.0550
     76  CG        -0.6530   22.5760   11.7660 C.ar  306  TRP306      0.0003
     77  CD1       -1.3090   21.5030   11.2010 C.ar  306  TRP306      0.0946
     78  CD2        0.4180   22.8820   10.8730 C.ar  306  TRP306      0.0152
     79  NE1       -0.6840   21.1330   10.0140 N.ar  306  TRP306     -0.2442
     80  CE2        0.4020   21.9690    9.8190 C.ar  306  TRP306      0.0810
     81  CE3        1.4570   23.8340   10.9140 C.ar  306  TRP306      0.0012
     82  CZ2        1.3320   21.9920    8.7870 C.ar  306  TRP306      0.0191
     83  CZ3        2.4140   23.8520    9.8950 C.ar  306  TRP306      0.0001
     84  CH2        2.3320   22.9470    8.8250 C.ar  306  TRP306      0.0015
     85  N         -4.9800   18.5170    5.6180 N.3   321  ASP321     -0.1225
     86  CA        -4.4530   17.3820    6.4330 C.3   321  ASP321      0.1790
     87  C         -5.4560   17.0650    7.5340 C.2   321  ASP321      0.2440
     88  O         -6.5130   17.7150    7.6440 O.2   321  ASP321     -0.2733
     89  CB        -3.0260   17.5680    6.9200 C.3   321  ASP321      0.1423
     90  CG        -2.7560   18.5610    8.0420 C.2   321  ASP321      0.3668
     91  OD1       -3.7340   19.0480    8.6540 O.co2 321  ASP321     -0.2456
     92  OD2       -1.5600   18.8610    8.3530 O.co2 321  ASP321     -0.2456
     93  N         -5.2070   16.1300    8.4540 N.am  322  PRO322     -0.2718
     94  CA        -6.1660   15.8350    9.5200 C.3   322  PRO322      0.1535
     95  C         -6.4860   16.9720   10.4790 C.2   322  PRO322      0.2598
     96  O         -7.4620   16.9150   11.2560 O.2   322  PRO322     -0.2715
     97  CB        -5.5700   14.6280   10.2470 C.3   322  PRO322      0.0310
     98  CG        -4.5820   14.0360    9.2970 C.3   322  PRO322      0.0237
     99  CD        -4.0490   15.2170    8.4770 C.3   322  PRO322      0.0939
    100  N         -5.7010   18.0450   10.5060 N.am  323  TYR323     -0.1974
    101  CA        -5.8450   19.1570   11.4270 C.3   323  TYR323      0.1639
    102  C         -6.5200   20.3940   10.8130 C.2   323  TYR323      0.2290
    103  O         -6.7700   21.4030   11.4850 O.2   323  TYR323     -0.2864
    104  CB        -4.4450   19.5090   12.0070 C.3   323  TYR323      0.0560
    105  CG        -3.6540   18.3790   12.6530 C.ar  323  TYR323     -0.0198
    106  CD1       -3.8820   17.9570   13.9650 C.ar  323  TYR323     -0.0009
    107  CD2       -2.6540   17.7280   11.9430 C.ar  323  TYR323     -0.0009
    108  CE1       -3.1580   16.9220   14.5570 C.ar  323  TYR323      0.0417
    109  CE2       -1.9280   16.6700   12.4960 C.ar  323  TYR323      0.0417
    110  CZ        -2.1740   16.2980   13.8000 C.ar  323  TYR323      0.1957
    111  OH        -1.4630   15.2420   14.3220 O.3   323  TYR323     -0.2866
@<TRIPOS>BOND
     1    85    86    1
     2    86    89    1
     3    86    87    1
     4    89    90    1
     5    87    88    2
     6    87    93   am
     7    90    92   ar
     8    90    91   ar
     9    93    99    1
    10    93    94    1
    11    99    98    1
    12    82    84   ar
    13    82    80   ar
    14    84    83   ar
    15    98    97    1
    16    94    97    1
    17    94    95    1
    18    80    79   ar
    19    80    78   ar
    20    83    81   ar
    21    79    77   ar
    22    95   100   am
    23    95    96    2
    24   100   101    1
    25   102   101    1
    26   102   103    2
    27    78    81   ar
    28    78    76   ar
    29    77    76   ar
    30   101   104    1
    31    76    75    1
    32   107   109   ar
    33   107   105   ar
    34   104   105    1
    35    73    72    1
    36    73    74    2
    37   109   110   ar
    38   105   106   ar
    39    72    75    1
    40    72    71    1
    41    69    68   ar
    42    70    68   ar
    43     1     2    1
    44    68    67    1
    45    41    40    1
    46   110   111    1
    47   110   108   ar
    48   106   108   ar
    49     5     2    1
    50     5     6    2
    51     4     3    2
    52     3     2    1
    53    67    66    2
    54     8     7   ar
    55     6     7    1
    56     7     9   ar
    57    13    12    2
    58    40    38   ar
    59    40    39   ar
    60    38    36   ar
    61    10    11    1
    62    66    63    1
    63    39    37   ar
    64    12    11    1
    65    11    14    1
    66    14    15    1
    67    63    62    1
    68    63    64    1
    69    36    35   ar
    70    47    46    1
    71    15    16    1
    72    37    35   ar
    73    16    17    1
    74    35    34    1
    75    64    65    1
    76    17    18    2
    77    19    18    1
    78    46    43    1
    79    18    20    1
    80    28    27   ar
    81    27    26    1
    82    27    29   ar
    83    26    25    1
    84    34    31    1
    85    43    42    1
    86    43    44    1
    87    21    22    1
    88    25    22    1
    89    45    44    2
    90    22    23    1
    91    44    48   am
    92    31    30    1
    93    31    32    1
    94    56    54   ar
    95    56    57   ar
    96    54    53   ar
    97    33    32    2
    98    59    57   ar
    99    59    61   ar
   100    57    55   ar
   101    48    49    1
   102    23    24    2
   103    53    55   ar
   104    53    52    1
   105    61    60   ar
   106    55    58   ar
   107    49    52    1
   108    49    50    1
   109    60    58   ar
   110    50    51    2
