@<TRIPOS>MOLECULE
tmp/1qnqA01.pdb
 100 98 0 0 0
SMALL
GASTEIGER

@<TRIPOS>ATOM
      1  N         12.3660   18.0990    8.7670 N.3   114  TRP114     -0.1227
      2  CA        11.7060   16.9320    8.1580 C.3   114  TRP114      0.1737
      3  C         11.8700   16.9450    6.6330 C.2   114  TRP114      0.2596
      4  O         12.2380   17.9950    6.0920 O.2   114  TRP114     -0.2718
      5  CB        10.2400   16.6970    8.6120 C.3   114  TRP114      0.0564
      6  CG        10.0940   16.8130   10.1190 C.ar  114  TRP114      0.0003
      7  CD1        9.5430   17.8690   10.7920 C.ar  114  TRP114      0.0946
      8  CD2       10.7190   15.9990   11.1040 C.ar  114  TRP114      0.0152
      9  NE1        9.7490   17.7370   12.1520 N.ar  114  TRP114     -0.2442
     10  CE2       10.4670   16.5810   12.3620 C.ar  114  TRP114      0.0810
     11  CE3       11.4090   14.7770   11.0510 C.ar  114  TRP114      0.0012
     12  CZ2       10.9050   15.9740   13.5440 C.ar  114  TRP114      0.0191
     13  CZ3       11.8510   14.1900   12.2250 C.ar  114  TRP114      0.0001
     14  CH2       11.6090   14.8280   13.4610 C.ar  114  TRP114      0.0015
     15  N         11.6250   15.8490    5.9130 N.am  115  SER115     -0.1938
     16  CA        11.9020   15.7910    4.4640 C.3   115  SER115      0.2055
     17  C         10.8420   16.3600    3.5320 C.2   115  SER115      0.2643
     18  O         10.9710   16.3060    2.2890 O.2   115  SER115     -0.2714
     19  CB        12.2750   14.3550    4.0350 C.3   115  SER115      0.2130
     20  OG        13.3800   13.8810    4.7990 O.3   115  SER115     -0.2179
     21  N          9.7780   16.9210    4.0710 N.am  116  ASP116     -0.1971
     22  CA         8.7260   17.5910    3.2790 C.3   116  ASP116      0.1709
     23  C          9.2750   18.8760    2.6780 C.2   116  ASP116      0.2293
     24  O          9.8390   19.7090    3.3850 O.2   116  ASP116     -0.2864
     25  CB         7.5100   17.8310    4.1590 C.3   116  ASP116      0.1436
     26  CG         6.9750   16.5910    4.8620 C.2   116  ASP116      0.3671
     27  OD1        6.6850   15.5740    4.1740 O.co2 116  ASP116     -0.2456
     28  OD2        6.8720   16.5830    6.1200 O.co2 116  ASP116     -0.2456
     29  N         12.2080   24.7840   10.7960 N.3   168  ASN168     -0.1225
     30  CA        10.9720   24.1590   11.3020 C.3   168  ASN168      0.1785
     31  C         11.3870   22.9040   12.1040 C.2   168  ASN168      0.2600
     32  O         11.8870   21.9330   11.5370 O.2   168  ASN168     -0.2717
     33  CB        10.0010   23.7480   10.1850 C.3   168  ASN168      0.1169
     34  CG         8.7800   22.9490   10.6430 C.2   168  ASN168      0.2627
     35  OD1        8.0530   23.4570   11.5180 O.2   168  ASN168     -0.2716
     36  ND2        8.4670   21.7580   10.1670 N.am  168  ASN168     -0.0877
     37  N         11.2980   22.9740   13.4320 N.am  169  GLU169     -0.1934
     38  CA        11.5390   21.9010   14.3680 C.3   169  GLU169      0.1818
     39  C         12.9360   21.3240   14.3460 C.2   169  GLU169      0.2332
     40  O         13.1290   20.0920   14.2990 O.2   169  GLU169     -0.2860
     41  CB        10.4550   20.8000   14.2110 C.2   169  GLU169      0.0097
     42  CG         9.0110   21.2480   14.4090 C.2   169  GLU169      0.0837
     43  CD         7.9840   20.1500   14.6270 C.2   169  GLU169      0.3877
     44  OE1        8.2670   18.9360   14.4050 O.co2 169  GLU169     -0.2406
     45  OE2        6.8320   20.4390   15.0650 O.co2 169  GLU169     -0.2406
     46  N         16.1320   19.3890   15.2020 N.3   171  ARG171     -0.1245
     47  CA        16.5140   18.3520   16.1540 C.3   171  ARG171      0.1563
     48  C         17.9200   17.8110   15.8810 C.2   171  ARG171      0.2260
     49  O         18.3650   17.8740   14.7350 O.2   171  ARG171     -0.2867
     50  CB        15.5740   17.1380   16.1920 C.3   171  ARG171      0.0307
     51  CG        14.1350   17.3500   16.6580 C.3   171  ARG171      0.0489
     52  CD        13.3460   16.0280   16.6920 C.3   171  ARG171      0.2205
     53  NE        11.9690   16.1080   17.1830 N.pl3 171  ARG171     -0.0865
     54  CZ        11.2050   15.0570   17.4810 C.cat 171  ARG171      0.5346
     55  NH1       11.6370   13.7960   17.3510 N.pl3 171  ARG171      0.1354
     56  NH2        9.9500   15.2210   17.9060 N.pl3 171  ARG171      0.1354
     57  N         10.5160   22.8300   18.7920 N.3   205  GLU205     -0.1245
     58  CA         9.3280   22.2950   19.4330 C.3   205  GLU205      0.1567
     59  C          9.2660   22.6030   20.9440 C.2   205  GLU205      0.2260
     60  O          8.2040   22.4610   21.5670 O.2   205  GLU205     -0.2867
     61  CB         9.2690   20.7650   19.2970 C.3   205  GLU205      0.0388
     62  CG         9.1070   20.2400   17.8460 C.3   205  GLU205      0.1160
     63  CD         9.5950   18.8040   17.7320 C.2   205  GLU205      0.3649
     64  OE1       10.8190   18.6090   17.5270 O.co2 205  GLU205     -0.2457
     65  OE2        8.8080   17.8220   17.8580 O.co2 205  GLU205     -0.2457
     66  N          1.7750   18.3690   20.2050 N.3   243  TYR243     -0.1241
     67  CA         1.0380   17.2880   19.4940 C.3   243  TYR243      0.1605
     68  C          0.9510   16.0190   20.3520 C.2   243  TYR243      0.2264
     69  O          1.6880   15.0170   20.1880 O.2   243  TYR243     -0.2867
     70  CB         1.7670   16.9890   18.1730 C.3   243  TYR243      0.0534
     71  CG         1.7120   17.9660   17.0200 C.ar  243  TYR243     -0.0201
     72  CD1        0.5520   18.0390   16.2540 C.ar  243  TYR243     -0.0009
     73  CD2        2.7540   18.8220   16.6860 C.ar  243  TYR243     -0.0009
     74  CE1        0.4290   18.9020   15.1750 C.ar  243  TYR243      0.0417
     75  CE2        2.6680   19.6980   15.6190 C.ar  243  TYR243      0.0417
     76  CZ         1.5050   19.7040   14.8530 C.ar  243  TYR243      0.1957
     77  OH         1.3590   20.5720   13.7950 O.3   243  TYR243     -0.2866
     78  N          2.6090   26.2470   17.0070 N.3   276  GLU276     -0.1253
     79  CA         1.9840   25.1830   16.2130 C.3   276  GLU276      0.1468
     80  C          1.3370   24.1490   17.1160 C.3   276  GLU276      0.2054
     81  O          2.0910   23.6770   17.9960 O.3   276  GLU276     -0.2184
     82  CB         3.0680   24.5480   15.3310 C.2   276  GLU276      0.0019
     83  CG         2.7730   23.4440   14.3920 C.2   276  GLU276      0.0831
     84  CD         3.8400   22.9840   13.4420 C.2   276  GLU276      0.3877
     85  OE1        4.8510   23.6230   12.9900 O.co2 276  GLU276     -0.2406
     86  OE2        3.6380   21.8060   13.0680 O.co2 276  GLU276     -0.2406
     87  N         -2.4580   25.0320   14.1200 N.3   306  TRP306     -0.1241
     88  CA        -2.2140   24.2870   12.8720 C.3   306  TRP306      0.1605
     89  C         -3.5280   23.6160   12.4660 C.2   306  TRP306      0.2264
     90  O         -4.0370   22.8130   13.2620 O.2   306  TRP306     -0.2867
     91  CB        -1.0760   23.2390   13.0470 C.3   306  TRP306      0.0550
     92  CG        -0.6530   22.5760   11.7660 C.ar  306  TRP306      0.0003
     93  CD1       -1.3090   21.5030   11.2010 C.ar  306  TRP306      0.0946
     94  CD2        0.4180   22.8820   10.8730 C.ar  306  TRP306      0.0152
     95  NE1       -0.6840   21.1330   10.0140 N.ar  306  TRP306     -0.2442
     96  CE2        0.4020   21.9690    9.8190 C.ar  306  TRP306      0.0810
     97  CE3        1.4570   23.8340   10.9140 C.ar  306  TRP306      0.0012
     98  CZ2        1.3320   21.9920    8.7870 C.ar  306  TRP306      0.0191
     99  CZ3        2.4140   23.8520    9.8950 C.ar  306  TRP306      0.0001
    100  CH2        2.3320   22.9470    8.8250 C.ar  306  TRP306      0.0015
@<TRIPOS>BOND
     1    18    17    2
     2    23    22    1
     3    23    24    2
     4    22    21    1
     5    22    25    1
     6    17    21   am
     7    17    16    1
     8    19    16    1
     9    19    20    1
    10    25    26    1
    11    27    26   ar
    12    16    15    1
    13    26    28   ar
    14    15     3   am
    15     4     3    2
    16     3     2    1
    17     2     5    1
    18     2     1    1
    19     5     6    1
    20    98   100   ar
    21    98    96   ar
    22   100    99   ar
    23    96    95   ar
    24    96    94   ar
    25    99    97   ar
    26    95    93   ar
    27     6     7   ar
    28     6     8   ar
    29    36    34   am
    30    33    34    1
    31    33    30    1
    32    34    35    2
    33     7     9   ar
    34    29    30    1
    35    94    97   ar
    36    94    92   ar
    37    11     8   ar
    38    11    13   ar
    39     8    10   ar
    40    93    92   ar
    41    30    31    1
    42    32    31    2
    43    92    91    1
    44    31    37   am
    45     9    10   ar
    46    13    14   ar
    47    10    12   ar
    48    89    88    1
    49    89    90    2
    50    88    91    1
    51    88    87    1
    52    85    84   ar
    53    86    84   ar
    54    37    38    1
    55    84    83    1
    56    14    12   ar
    57    77    76    1
    58    41    38    1
    59    41    42    2
    60    40    39    2
    61    39    38    1
    62    83    82    2
    63    44    43   ar
    64    42    43    1
    65    43    45   ar
    66    49    48    2
    67    76    74   ar
    68    76    75   ar
    69    74    72   ar
    70    46    47    1
    71    82    79    1
    72    75    73   ar
    73    48    47    1
    74    47    50    1
    75    50    51    1
    76    79    78    1
    77    79    80    1
    78    72    71   ar
    79    51    52    1
    80    73    71   ar
    81    52    53    1
    82    71    70    1
    83    80    81    1
    84    53    54    2
    85    55    54    1
    86    54    56    1
    87    64    63   ar
    88    63    62    1
    89    63    65   ar
    90    62    61    1
    91    70    67    1
    92    57    58    1
    93    61    58    1
    94    58    59    1
    95    67    66    1
    96    67    68    1
    97    69    68    2
    98    59    60    2
