@<TRIPOS>MOLECULE
tmp/1qnrA00.pdb
 129 124 0 0 0
SMALL
GASTEIGER

@<TRIPOS>ATOM
      1  N         12.0080   18.3550    9.0620 N.3   114  TRP114     -0.1241
      2  CA        11.4390   17.1520    8.4360 C.3   114  TRP114      0.1605
      3  C         11.5410   17.1410    6.9340 C.2   114  TRP114      0.2264
      4  O         11.8800   18.1800    6.3180 O.2   114  TRP114     -0.2867
      5  CB         9.9240   17.0390    8.8720 C.3   114  TRP114      0.0550
      6  CG         9.7730   17.1600   10.3610 C.ar  114  TRP114      0.0003
      7  CD1        9.2340   18.2430   11.0470 C.ar  114  TRP114      0.0946
      8  CD2       10.2050   16.2420   11.3740 C.ar  114  TRP114      0.0152
      9  NE1        9.3040   18.0480   12.4120 N.ar  114  TRP114     -0.2442
     10  CE2        9.8950   16.8250   12.6380 C.ar  114  TRP114      0.0810
     11  CE3       10.9130   15.0250   11.3640 C.ar  114  TRP114      0.0012
     12  CZ2       10.1870   16.1870   13.8510 C.ar  114  TRP114      0.0191
     13  CZ3       11.1780   14.3760   12.5650 C.ar  114  TRP114      0.0001
     14  CH2       10.8310   14.9800   13.8050 C.ar  114  TRP114      0.0015
     15  N          9.4140   16.9620    4.4710 N.3   116  ASP116     -0.1239
     16  CA         8.4150   17.5770    3.6460 C.3   116  ASP116      0.1674
     17  C          8.9890   18.8150    2.9540 C.2   116  ASP116      0.2266
     18  O          9.4930   19.7150    3.6860 O.2   116  ASP116     -0.2867
     19  CB         7.1360   17.9360    4.4590 C.3   116  ASP116      0.1410
     20  CG         6.6860   16.7030    5.3000 C.2   116  ASP116      0.3668
     21  OD1        6.2470   15.6840    4.7340 O.co2 116  ASP116     -0.2456
     22  OD2        6.8070   16.7160    6.5330 O.co2 116  ASP116     -0.2456
     23  N         11.7130   25.1620   10.7440 N.3   168  ASN168     -0.1225
     24  CA        10.5110   24.5420   11.3210 C.3   168  ASN168      0.1785
     25  C         10.9270   23.3460   12.2080 C.2   168  ASN168      0.2597
     26  O         11.3750   22.3130   11.6530 O.2   168  ASN168     -0.2718
     27  CB         9.5690   24.0460   10.2430 C.3   168  ASN168      0.1169
     28  CG         8.3190   23.3610   10.8420 C.2   168  ASN168      0.2627
     29  OD1        7.6190   23.9240   11.7110 O.2   168  ASN168     -0.2716
     30  ND2        8.0780   22.1410   10.3820 N.am  168  ASN168     -0.0877
     31  N         10.7260   23.4570   13.5270 N.am  169  GLU169     -0.1979
     32  CA        10.9110   22.3260   14.4860 C.3   169  GLU169      0.1602
     33  C         12.3100   21.7610   14.4760 C.2   169  GLU169      0.2287
     34  O         12.4760   20.5180   14.4910 O.2   169  GLU169     -0.2864
     35  CB         9.8590   21.1670   14.2710 C.3   169  GLU169      0.0415
     36  CG         8.4400   21.7990   14.3020 C.3   169  GLU169      0.1163
     37  CD         7.3450   20.7720   14.3560 C.2   169  GLU169      0.3649
     38  OE1        7.4940   19.6140   13.9240 O.co2 169  GLU169     -0.2457
     39  OE2        6.2280   21.1790   14.7540 O.co2 169  GLU169     -0.2457
     40  N         15.5040   19.8180   15.4440 N.3   171  ARG171     -0.1245
     41  CA        15.8410   18.8290   16.4720 C.3   171  ARG171      0.1563
     42  C         17.2380   18.3010   16.1870 C.2   171  ARG171      0.2260
     43  O         17.7250   18.3630   15.0370 O.2   171  ARG171     -0.2867
     44  CB        14.8900   17.6130   16.5050 C.3   171  ARG171      0.0307
     45  CG        13.4100   17.9570   16.8360 C.3   171  ARG171      0.0489
     46  CD        12.6840   16.5850   16.8750 C.3   171  ARG171      0.2205
     47  NE        11.2800   16.7490   17.2570 N.pl3 171  ARG171     -0.0865
     48  CZ        10.4630   15.7070   17.5570 C.cat 171  ARG171      0.5346
     49  NH1       10.9360   14.4560   17.4760 N.pl3 171  ARG171      0.1354
     50  NH2        9.2090   15.9890   17.8740 N.pl3 171  ARG171      0.1354
     51  N          9.9570   23.3980   18.8440 N.3   205  GLU205     -0.1245
     52  CA         8.7140   22.9270   19.5110 C.3   205  GLU205      0.1567
     53  C          8.5920   23.2430   20.9810 C.2   205  GLU205      0.2260
     54  O          7.5380   23.0400   21.6440 O.2   205  GLU205     -0.2867
     55  CB         8.6090   21.4330   19.2840 C.3   205  GLU205      0.0388
     56  CG         8.5130   21.0150   17.7910 C.3   205  GLU205      0.1160
     57  CD         8.8560   19.5200   17.6470 C.2   205  GLU205      0.3649
     58  OE1       10.1080   19.3370   17.5440 O.co2 205  GLU205     -0.2457
     59  OE2        8.0200   18.5670   17.6990 O.co2 205  GLU205     -0.2457
     60  N         10.7320   21.5700   23.2310 N.3   207  LEU207     -0.1245
     61  CA        11.0850   20.3590   23.9930 C.3   207  LEU207      0.1561
     62  C         12.2810   20.6810   24.9130 C.2   207  LEU207      0.2260
     63  O         13.1910   21.4520   24.6040 O.2   207  LEU207     -0.2867
     64  CB        11.4400   19.1900   23.0500 C.3   207  LEU207      0.0270
     65  CG        10.3770   18.9700   21.9120 C.3   207  LEU207      0.0019
     66  CD1       10.8500   17.7790   21.0220 C.3   207  LEU207      0.0001
     67  CD2        8.9740   18.6910   22.4490 C.3   207  LEU207      0.0001
     68  N          7.7640   12.6830   28.1730 N.3   216  TYR216     -0.1241
     69  CA         8.7710   12.7780   27.1270 C.3   216  TYR216      0.1605
     70  C          9.0340   14.1640   26.5320 C.2   216  TYR216      0.2264
     71  O         10.2220   14.5070   26.4720 O.2   216  TYR216     -0.2867
     72  CB         8.6610   11.7320   25.9890 C.3   216  TYR216      0.0534
     73  CG         9.9440   11.7380   25.0890 C.ar  216  TYR216     -0.0201
     74  CD1       11.1740   11.1830   25.4840 C.ar  216  TYR216     -0.0009
     75  CD2        9.9530   12.2640   23.8310 C.ar  216  TYR216     -0.0009
     76  CE1       12.2520   11.1850   24.6290 C.ar  216  TYR216      0.0417
     77  CE2       11.0030   12.3590   22.9530 C.ar  216  TYR216      0.0417
     78  CZ        12.1910   11.7870   23.3570 C.ar  216  TYR216      0.1957
     79  OH        13.3980   11.7510   22.6160 O.3   216  TYR216     -0.2866
     80  N         15.8310   15.1710   22.3570 N.3   222  GLU222     -0.1245
     81  CA        15.7250   15.7260   20.9860 C.3   222  GLU222      0.1567
     82  C         16.7190   16.8460   20.7700 C.2   222  GLU222      0.2260
     83  O         16.5910   17.5810   19.7570 O.2   222  GLU222     -0.2867
     84  CB        14.2730   16.1480   20.6660 C.3   222  GLU222      0.0388
     85  CG        13.2700   14.9730   20.7620 C.3   222  GLU222      0.1160
     86  CD        13.5630   13.8350   19.8020 C.2   222  GLU222      0.3649
     87  OE1       14.3190   13.9690   18.8100 O.co2 222  GLU222     -0.2457
     88  OE2       13.0260   12.7050   20.0590 O.co2 222  GLU222     -0.2457
     89  N          1.2050   18.9980   20.4480 N.3   243  TYR243     -0.1241
     90  CA         0.4880   17.9090   19.7590 C.3   243  TYR243      0.1605
     91  C          0.4110   16.6460   20.6210 C.2   243  TYR243      0.2264
     92  O          1.1820   15.7030   20.4500 O.2   243  TYR243     -0.2867
     93  CB         1.2010   17.5590   18.4340 C.3   243  TYR243      0.0534
     94  CG         1.1190   18.6800   17.3490 C.ar  243  TYR243     -0.0201
     95  CD1       -0.0370   18.8550   16.6240 C.ar  243  TYR243     -0.0009
     96  CD2        2.2140   19.4950   17.1590 C.ar  243  TYR243     -0.0009
     97  CE1       -0.1000   19.8760   15.6630 C.ar  243  TYR243      0.0417
     98  CE2        2.1680   20.5560   16.2440 C.ar  243  TYR243      0.0417
     99  CZ         1.0370   20.6900   15.4860 C.ar  243  TYR243      0.1957
    100  OH         0.9460   21.6470   14.4590 O.3   243  TYR243     -0.2866
    101  N          0.5640   13.0940   18.9830 N.3   246  SER246     -0.1202
    102  CA         1.8150   12.5670   18.4720 C.3   246  SER246      0.2020
    103  C          2.7690   12.3040   19.6390 C.2   246  SER246      0.2618
    104  O          3.7780   11.5800   19.4810 O.2   246  SER246     -0.2717
    105  CB         2.5890   13.6400   17.6340 C.3   246  SER246      0.2103
    106  OG         1.8930   13.8340   16.4220 O.3   246  SER246     -0.2182
    107  N          2.4810   12.9530   20.7920 N.am  247  TRP247     -0.1975
    108  CA         3.4850   12.8930   21.8700 C.3   247  TRP247      0.1640
    109  C          3.1180   11.9230   23.0110 C.2   247  TRP247      0.2290
    110  O          3.8690   11.7800   23.9950 O.2   247  TRP247     -0.2864
    111  CB         3.6230   14.3150   22.4820 C.3   247  TRP247      0.0576
    112  CG         4.2230   15.3210   21.5160 C.ar  247  TRP247      0.0006
    113  CD1        4.8180   15.0590   20.2920 C.ar  247  TRP247      0.0946
    114  CD2        4.3950   16.7270   21.7380 C.ar  247  TRP247      0.0152
    115  NE1        5.3120   16.2470   19.7250 N.ar  247  TRP247     -0.2442
    116  CE2        5.0350   17.2700   20.5980 C.ar  247  TRP247      0.0810
    117  CE3        3.9810   17.5940   22.7770 C.ar  247  TRP247      0.0012
    118  CZ2        5.3170   18.6550   20.4890 C.ar  247  TRP247      0.0191
    119  CZ3        4.3140   18.9540   22.7000 C.ar  247  TRP247      0.0001
    120  CH2        4.9680   19.4440   21.5610 C.ar  247  TRP247      0.0015
    121  N          2.1770   26.6200   17.1790 N.3   276  GLU276     -0.1245
    122  CA         1.3830   25.5860   16.5180 C.3   276  GLU276      0.1567
    123  C          0.6270   24.7830   17.5600 C.2   276  GLU276      0.2260
    124  O          1.2420   24.5060   18.6240 O.2   276  GLU276     -0.2867
    125  CB         2.2090   24.5560   15.7200 C.3   276  GLU276      0.0388
    126  CG         3.0480   25.0560   14.5300 C.3   276  GLU276      0.1160
    127  CD         3.7270   23.9410   13.8130 C.2   276  GLU276      0.3649
    128  OE1        3.3980   22.7270   14.0520 O.co2 276  GLU276     -0.2457
    129  OE2        4.6580   24.1470   12.9870 O.co2 276  GLU276     -0.2457
@<TRIPOS>BOND
     1    17    16    1
     2    17    18    2
     3    16    19    1
     4    16    15    1
     5    19    20    1
     6    21    20   ar
     7    20    22   ar
     8     4     3    2
     9     3     2    1
    10     2     5    1
    11     2     1    1
    12     5     6    1
    13    27    28    1
    14    27    24    1
    15     6     7   ar
    16     6     8   ar
    17    30    28   am
    18    23    24    1
    19    28    29    2
    20     7     9   ar
    21    24    25    1
    22    11     8   ar
    23    11    13   ar
    24     8    10   ar
    25    26    25    2
    26    25    31   am
    27     9    10   ar
    28    13    14   ar
    29    10    12   ar
    30   129   127   ar
    31    31    32    1
    32    14    12   ar
    33   127   128   ar
    34   127   126    1
    35    38    37   ar
    36    35    36    1
    37    35    32    1
    38    36    37    1
    39    37    39   ar
    40   100    99    1
    41    33    32    1
    42    33    34    2
    43   126   125    1
    44    43    42    2
    45    40    41    1
    46    99    97   ar
    47    99    98   ar
    48    97    95   ar
    49   125   122    1
    50    42    41    1
    51    98    96   ar
    52   106   105    1
    53    41    44    1
    54    44    45    1
    55   122   121    1
    56   122   123    1
    57    95    94   ar
    58    45    46    1
    59    46    47    1
    60    96    94   ar
    61    47    48    2
    62    94    93    1
    63    49    48    1
    64    58    57   ar
    65    48    50    1
    66   123   124    2
    67   105   102    1
    68    57    59   ar
    69    57    56    1
    70    56    55    1
    71    93    90    1
    72   102   101    1
    73   102   103    1
    74    87    86   ar
    75    51    52    1
    76    55    52    1
    77   104   103    2
    78    52    53    1
    79   103   107   am
    80   115   113   ar
    81   115   116   ar
    82    83    82    2
    83    90    89    1
    84    90    91    1
    85    86    88   ar
    86    86    85    1
    87   113   112   ar
    88    92    91    2
    89   118   116   ar
    90   118   120   ar
    91   116   114   ar
    92    84    85    1
    93    84    81    1
    94    82    81    1
    95   107   108    1
    96    53    54    2
    97    81    80    1
    98    66    65    1
    99   112   114   ar
   100   112   111    1
   101   120   119   ar
   102   114   117   ar
   103   108   111    1
   104   108   109    1
   105    65    67    1
   106    65    64    1
   107    79    78    1
   108   119   117   ar
   109    77    78   ar
   110    77    75   ar
   111   109   110    2
   112    64    61    1
   113    60    61    1
   114    78    76   ar
   115    75    73   ar
   116    61    62    1
   117    63    62    2
   118    76    74   ar
   119    73    74   ar
   120    73    72    1
   121    72    69    1
   122    71    70    2
   123    70    69    1
   124    69    68    1
