@<TRIPOS>MOLECULE
tmp/1qo8A03.pdb
 183 175 0 0 0
SMALL
GASTEIGER

@<TRIPOS>ATOM
      1  N         59.1330   65.7750   -3.4760 N.3     4  MET4       -0.1230
      2  CA        59.1610   67.2130   -3.5870 C.3     4  MET4        0.1702
      3  C         60.5300   67.8210   -3.2340 C.2     4  MET4        0.2593
      4  O         60.8720   68.9260   -3.7140 O.2     4  MET4       -0.2718
      5  CB        58.0930   67.7340   -2.5930 C.3     4  MET4        0.0401
      6  CG        57.8450   69.2240   -2.7540 C.3     4  MET4        0.0596
      7  SD        56.3210   69.7750   -1.9270 S.3     4  MET4       -0.1393
      8  CE        56.7480   70.0330   -0.2680 C.3     4  MET4        0.0692
      9  N         61.0580   67.4580   -2.0830 N.am    5  GLY5       -0.1942
     10  CA        62.3780   67.6970   -1.5920 C.3     5  GLY5        0.2014
     11  C         63.4670   67.5860   -2.6740 C.2     5  GLY5        0.2639
     12  O         64.1270   68.5960   -2.9280 O.2     5  GLY5       -0.2714
     13  N         63.4710   66.5740   -3.5100 N.am    6  SER6       -0.1949
     14  CA        64.5010   66.4210   -4.5070 C.3     6  SER6        0.1924
     15  C         64.2460   67.2820   -5.7260 C.2     6  SER6        0.2314
     16  O         65.1470   67.8890   -6.3360 O.2     6  SER6       -0.2863
     17  CB        64.7230   64.9390   -4.7940 C.3     6  SER6        0.2116
     18  OG        63.8530   64.4330   -5.7800 O.3     6  SER6       -0.2180
     19  N         62.9280   70.2450   -5.4460 N.3     8  HIS8       -0.1226
     20  CA        63.3830   71.5360   -5.0290 C.3     8  HIS8        0.1752
     21  C         64.9440   71.6110   -4.9060 C.2     8  HIS8        0.2592
     22  O         65.5280   72.6920   -5.1810 O.2     8  HIS8       -0.2718
     23  CB        62.8110   72.0300   -3.6860 C.3     8  HIS8        0.0759
     24  CG        61.3680   72.4270   -3.8300 C.ar    8  HIS8        0.0818
     25  ND1       60.3900   71.4350   -4.0140 N.ar    8  HIS8       -0.2268
     26  CD2       60.7480   73.6400   -3.8870 C.ar    8  HIS8        0.1154
     27  CE1       59.2270   72.0500   -4.1430 C.ar    8  HIS8        0.1986
     28  NE2       59.4170   73.3570   -4.1320 N.ar    8  HIS8       -0.2212
     29  N         65.5640   70.6220   -4.2740 N.am    9  ALA9       -0.2033
     30  CA        67.0190   70.5670   -4.1530 C.3     9  ALA9        0.1283
     31  C         67.6700   70.6170   -5.5330 C.3     9  ALA9        0.2036
     32  O         68.6120   71.3210   -5.5430 O.3     9  ALA9       -0.2185
     33  CB        67.6570   69.3280   -3.5130 C.3     9  ALA9        0.0262
     34  N         68.9260   73.7980   -3.3360 N.3    13  SER13      -0.1202
     35  CA        69.6380   72.7430   -2.6180 C.3    13  SER13       0.2020
     36  C         68.7550   72.2320   -1.4780 C.2    13  SER13       0.2619
     37  O         67.7090   72.8590   -1.2430 O.2    13  SER13      -0.2717
     38  CB        70.9060   73.3480   -1.9930 C.3    13  SER13       0.2103
     39  OG        70.5410   74.3980   -1.0930 O.3    13  SER13      -0.2182
     40  N         69.2490   71.3040   -0.6700 N.am   14  CYS14      -0.1969
     41  CA        68.5780   70.8580    0.5330 C.3    14  CYS14       0.1712
     42  C         68.2060   72.0540    1.3960 C.2    14  CYS14       0.2296
     43  O         67.0670   72.1310    1.8610 O.2    14  CYS14      -0.2864
     44  CB        69.3670   69.8480    1.4230 C.3    14  CYS14       0.0983
     45  SG        69.8160   68.4580    0.3570 S.3    14  CYS14      -0.0798
     46  N         67.3670   74.8920    0.4490 N.3    16  SER16      -0.1202
     47  CA        66.1520   75.6640    0.1180 C.3    16  SER16       0.2020
     48  C         65.0980   75.4640    1.2450 C.2    16  SER16       0.2619
     49  O         64.5140   76.4790    1.6510 O.2    16  SER16      -0.2717
     50  CB        65.4950   75.3170   -1.1680 C.3    16  SER16       0.2103
     51  OG        66.1720   75.2830   -2.3600 O.3    16  SER16      -0.2182
     52  N         64.8430   74.2760    1.7900 N.am   17  CYS17      -0.1955
     53  CA        63.9310   74.3070    2.9510 C.3    17  CYS17       0.1843
     54  C         64.5520   74.0220    4.2800 C.2    17  CYS17       0.2625
     55  O         63.8180   74.2080    5.2680 O.2    17  CYS17      -0.2714
     56  CB        62.7170   73.3700    2.7890 C.3    17  CYS17       0.0997
     57  SG        62.1270   73.3530    1.1190 S.3    17  CYS17      -0.0797
     58  N         65.7600   73.4460    4.3370 N.am   18  HIS18      -0.1973
     59  CA        66.1860   72.9180    5.6540 C.3    18  HIS18       0.1656
     60  C         67.3390   73.8180    6.1500 C.2    18  HIS18       0.2291
     61  O         68.0810   74.3180    5.2980 O.2    18  HIS18      -0.2864
     62  CB        66.6930   71.4910    5.5480 C.3    18  HIS18       0.0771
     63  CG        65.6930   70.3690    5.2360 C.ar   18  HIS18       0.0820
     64  ND1       64.7540   70.0900    6.1940 N.ar   18  HIS18      -0.2267
     65  CD2       65.4720   69.4850    4.2860 C.ar   18  HIS18       0.1154
     66  CE1       64.0140   69.0810    5.7800 C.ar   18  HIS18       0.1986
     67  NE2       64.3460   68.6760    4.5880 N.ar   18  HIS18      -0.2212
     68  N         71.0470   69.4610    8.4650 N.3    22  ILE22      -0.1245
     69  CA        69.6210   69.1250    8.4470 C.3    22  ILE22       0.1561
     70  C         69.2120   68.6170    9.8300 C.2    22  ILE22       0.2260
     71  O         69.7110   67.6030   10.3170 O.2    22  ILE22      -0.2867
     72  CB        69.2440   68.1410    7.3370 C.3    22  ILE22       0.0252
     73  CG1       69.4040   68.8660    6.0180 C.3    22  ILE22       0.0019
     74  CG2       67.8050   67.6150    7.5480 C.3    22  ILE22       0.0019
     75  CD1       69.2340   68.1590    4.7110 C.3    22  ILE22       0.0001
     76  N         65.4610   68.7700   11.5170 N.3    24  VAL24      -0.1245
     77  CA        64.0750   69.3000   11.2770 C.3    24  VAL24       0.1561
     78  C         63.3760   69.3600   12.6110 C.2    24  VAL24       0.2260
     79  O         63.4210   68.3840   13.3560 O.2    24  VAL24      -0.2867
     80  CB        63.3890   68.4270   10.2510 C.3    24  VAL24       0.0252
     81  CG1       61.9710   68.9820    9.9310 C.3    24  VAL24       0.0019
     82  CG2       64.2670   68.2810    9.0290 C.3    24  VAL24       0.0019
     83  N         58.3020   71.4860   12.2960 N.3    28  GLU28      -0.1245
     84  CA        58.6910   71.8710   10.9300 C.3    28  GLU28       0.1567
     85  C         58.6580   73.3410   10.6050 C.2    28  GLU28       0.2260
     86  O         58.3180   73.8560    9.5140 O.2    28  GLU28      -0.2867
     87  CB        57.9140   71.0090    9.9210 C.3    28  GLU28       0.0388
     88  CG        58.0160   69.5030   10.2940 C.3    28  GLU28       0.1160
     89  CD        57.1870   68.5950    9.4340 C.2    28  GLU28       0.3649
     90  OE1       56.3790   69.0420    8.5520 O.co2  28  GLU28      -0.2457
     91  OE2       57.2710   67.3430    9.4880 O.co2  28  GLU28      -0.2457
     92  N         61.0810   74.8680    7.8030 N.3    31  GLU31      -0.1245
     93  CA        60.7220   74.4710    6.4600 C.3    31  GLU31       0.1567
     94  C         59.4760   75.2350    5.9470 C.2    31  GLU31       0.2260
     95  O         59.4120   75.6890    4.7600 O.2    31  GLU31      -0.2867
     96  CB        60.5190   72.9590    6.4370 C.3    31  GLU31       0.0388
     97  CG        61.7490   72.1260    6.7440 C.3    31  GLU31       0.1160
     98  CD        62.2330   72.0730    8.1550 C.2    31  GLU31       0.3649
     99  OE1       61.5810   72.5590    9.1130 O.co2  31  GLU31      -0.2457
    100  OE2       63.3750   71.5750    8.3020 O.co2  31  GLU31      -0.2457
    101  N         58.6760   77.5560    2.5360 N.3    35  CYS35      -0.1292
    102  CA        57.4940   77.5650    1.6690 C.3    35  CYS35       0.1363
    103  C         56.9170   78.9470    1.5230 C.3    35  CYS35       0.2019
    104  O         56.7470   79.2780    0.3560 O.3    35  CYS35      -0.2188
    105  CB        56.2620   76.7100    2.0770 C.3    35  CYS35       0.0903
    106  SG        56.7540   75.1880    2.9230 S.3    35  CYS35      -0.0805
    107  N         53.0960   71.8300    5.1360 N.3    65  THR65      -0.1218
    108  CA        53.3820   70.4330    5.2450 C.3    65  THR65       0.1862
    109  C         52.3550   69.7030    6.1300 C.2    65  THR65       0.2287
    110  O         52.4780   68.4760    6.2650 O.2    65  THR65      -0.2866
    111  CB        54.8300   70.2650    5.8660 C.3    65  THR65       0.1770
    112  OG1       54.7720   70.8130    7.1750 O.3    65  THR65      -0.2211
    113  CG2       55.8200   71.1390    5.0190 C.3    65  THR65       0.0375
    114  N         51.3980   69.2130    1.9420 N.3    68  HIS68      -0.1226
    115  CA        52.4600   68.9400    0.9690 C.3    68  HIS68       0.1752
    116  C         53.5820   68.1990    1.7410 C.2    68  HIS68       0.2596
    117  O         53.8690   68.7060    2.8030 O.2    68  HIS68      -0.2718
    118  CB        53.0880   70.2220    0.4220 C.3    68  HIS68       0.0759
    119  CG        52.0240   70.8430   -0.4880 C.ar   68  HIS68       0.0818
    120  ND1       51.8200   70.2610   -1.7170 N.ar   68  HIS68      -0.2268
    121  CD2       51.2150   71.8870   -0.3840 C.ar   68  HIS68       0.1154
    122  CE1       50.9470   70.9680   -2.3920 C.ar   68  HIS68       0.1986
    123  NE2       50.5520   71.9490   -1.6250 N.ar   68  HIS68      -0.2212
    124  N         54.1520   67.1130    1.2480 N.am   69  LYS69      -0.1966
    125  CA        55.2490   66.5180    2.0430 C.3    69  LYS69       0.1728
    126  C         56.5880   66.6500    1.3540 C.2    69  LYS69       0.2617
    127  O         56.7430   66.4300    0.1320 O.2    69  LYS69      -0.2715
    128  CB        54.8610   65.0350    2.2610 C.3    69  LYS69       0.0311
    129  CG        53.7280   64.8140    3.2630 C.3    69  LYS69       0.0038
    130  CD        53.9640   65.2110    4.7010 C.3    69  LYS69       0.0206
    131  CE        52.6530   65.4110    5.5010 C.3    69  LYS69       0.1093
    132  NZ        52.9150   65.7440    6.9490 N.3    69  LYS69      -0.1314
    133  N         57.6650   66.7800    2.1250 N.am   70  GLY70      -0.1940
    134  CA        59.0270   66.7430    1.5930 C.3    70  GLY70       0.2014
    135  C         59.3600   65.4760    0.8580 C.2    70  GLY70       0.2639
    136  O         59.9950   65.4540   -0.2120 O.2    70  GLY70      -0.2714
    137  N         59.1030   64.3250    1.5120 N.am   71  HIS71      -0.1959
    138  CA        59.8350   63.0950    1.1890 C.3    71  HIS71       0.1787
    139  C         58.7860   61.9650    1.2030 C.2    71  HIS71       0.2620
    140  O         59.1140   60.8110    1.3870 O.2    71  HIS71      -0.2715
    141  CB        60.9960   62.8860    2.2360 C.3    71  HIS71       0.0785
    142  CG        61.9910   64.0450    2.1370 C.ar   71  HIS71       0.0821
    143  ND1       62.6700   64.1760    0.9390 N.ar   71  HIS71      -0.2267
    144  CD2       62.4010   65.0600    2.8790 C.ar   71  HIS71       0.1154
    145  CE1       63.3610   65.2910    0.9860 C.ar   71  HIS71       0.1986
    146  NE2       63.3290   65.8580    2.1640 N.ar   71  HIS71      -0.2212
    147  N         57.4990   62.2380    0.9600 N.am   72  GLU72      -0.1977
    148  CA        56.4720   61.2000    0.9200 C.3    72  GLU72       0.1602
    149  C         55.1590   61.6430    0.2740 C.2    72  GLU72       0.2287
    150  O         54.9330   62.7950   -0.0540 O.2    72  GLU72      -0.2864
    151  CB        56.1610   60.6110    2.3140 C.3    72  GLU72       0.0415
    152  CG        55.3850   61.5260    3.2040 C.3    72  GLU72       0.1163
    153  CD        55.1900   61.1230    4.6460 C.2    72  GLU72       0.3649
    154  OE1       56.1320   61.1150    5.4440 O.co2  72  GLU72      -0.2457
    155  OE2       54.1030   60.8890    5.1810 O.co2  72  GLU72      -0.2457
    156  N         54.3210   56.2100    3.1960 N.3    97  LYS97      -0.1245
    157  CA        55.0110   55.9280    4.4490 C.3    97  LYS97       0.1561
    158  C         53.9030   55.8280    5.4970 C.2    97  LYS97       0.2260
    159  O         52.8400   56.4150    5.3110 O.2    97  LYS97      -0.2867
    160  CB        56.0180   56.9830    4.9370 C.3    97  LYS97       0.0271
    161  CG        57.1390   57.2950    3.9470 C.3    97  LYS97       0.0035
    162  CD        58.1880   58.2050    4.5710 C.3    97  LYS97       0.0206
    163  CE        59.3020   58.5940    3.5500 C.3    97  LYS97       0.1093
    164  NZ        60.1830   59.5860    4.3040 N.3    97  LYS97      -0.1314
    165  N         57.7260   63.9640   16.3110 N.3   291  LYS291     -0.1231
    166  CA        57.8960   63.2710   15.0280 C.3   291  LYS291      0.1693
    167  C         59.3710   63.2030   14.6070 C.2   291  LYS291      0.2592
    168  O         59.7210   62.2750   13.8820 O.2   291  LYS291     -0.2718
    169  CB        57.1190   64.1340   14.0020 C.3   291  LYS291      0.0285
    170  CG        57.3330   63.7430   12.5330 C.3   291  LYS291      0.0035
    171  CD        56.3980   64.6080   11.6530 C.3   291  LYS291      0.0206
    172  CE        56.4370   64.1350   10.1770 C.3   291  LYS291      0.1093
    173  NZ        55.6640   65.2230    9.4170 N.3   291  LYS291     -0.1314
    174  N         60.0900   64.2840   14.7880 N.am  292  HIS292     -0.1976
    175  CA        61.4790   64.3040   14.2310 C.3   292  HIS292      0.1656
    176  C         62.4800   63.9700   15.3340 C.2   292  HIS292      0.2291
    177  O         63.4290   63.2540   15.2080 O.2   292  HIS292     -0.2864
    178  CB        61.7690   65.7380   13.6640 C.3   292  HIS292      0.0771
    179  CG        60.9430   65.7820   12.3860 C.ar  292  HIS292      0.0820
    180  ND1       59.9270   66.6840   12.1150 N.ar  292  HIS292     -0.2267
    181  CD2       60.9870   64.9660   11.3280 C.ar  292  HIS292      0.1154
    182  CE1       59.4240   66.4070   10.9250 C.ar  292  HIS292      0.1986
    183  NE2       60.0350   65.3450   10.4410 N.ar  292  HIS292     -0.2212
@<TRIPOS>BOND
     1    16    15    2
     2    18    17    1
     3    15    14    1
     4    32    31    1
     5    31    30    1
     6    19    20    1
     7    22    21    2
     8    20    21    1
     9    20    23    1
    10    21    29   am
    11    17    14    1
    12    14    13    1
    13    29    30    1
    14    30    33    1
    15    27    28   ar
    16    27    25   ar
    17    28    26   ar
    18    25    24   ar
    19    26    24   ar
    20    24    23    1
    21     4     3    2
    22     2     1    1
    23     2     3    1
    24     2     5    1
    25    13    11   am
    26    34    35    1
    27     3     9   am
    28    12    11    2
    29     6     5    1
    30     6     7    1
    31    11    10    1
    32    35    38    1
    33    35    36    1
    34   122   120   ar
    35   122   123   ar
    36    51    50    1
    37     9    10    1
    38    38    39    1
    39     7     8    1
    40   120   119   ar
    41   123   121   ar
    42    36    37    2
    43    36    40   am
    44    50    47    1
    45    40    41    1
    46   119   121   ar
    47   119   118    1
    48   136   135    2
    49   150   149    2
    50    47    46    1
    51    47    48    1
    52   127   126    2
    53   149   148    1
    54   104   103    1
    55    45    44    1
    56   118   115    1
    57    41    42    1
    58    41    44    1
    59   135   137   am
    60   135   134    1
    61   148   147    1
    62   148   151    1
    63   143   145   ar
    64   143   142   ar
    65   147   139   am
    66   115   116    1
    67   115   114    1
    68   145   146   ar
    69    57    56    1
    70   138   139    1
    71   138   137    1
    72   138   141    1
    73   139   140    2
    74    48    49    2
    75    48    52   am
    76   124   116   am
    77   124   125    1
    78   126   125    1
    79   126   133   am
    80    42    43    2
    81   103   102    1
    82   134   133    1
    83   102   105    1
    84   102   101    1
    85   116   117    2
    86    52    53    1
    87   125   128    1
    88   105   106    1
    89   142   141    1
    90   142   144   ar
    91   146   144   ar
    92   128   129    1
    93   151   152    1
    94    56    53    1
    95    53    54    1
    96   156   157    1
    97   152   153    1
    98   129   130    1
    99   163   164    1
   100   163   162    1
   101   161   162    1
   102   161   160    1
   103    54    58   am
   104    54    55    2
   105    65    67   ar
   106    65    63   ar
   107    58    59    1
   108   157   160    1
   109   157   158    1
   110    67    66   ar
   111   153   155   ar
   112   153   154   ar
   113   130   131    1
   114    75    73    1
   115    95    94    2
   116   113   111    1
   117   107   108    1
   118    63    62    1
   119    63    64   ar
   120   108   111    1
   121   108   109    1
   122    61    60    2
   123   159   158    2
   124   131   132    1
   125    62    59    1
   126    59    60    1
   127    66    64   ar
   128   111   112    1
   129    94    93    1
   130    73    72    1
   131   109   110    2
   132    96    93    1
   133    96    97    1
   134    93    92    1
   135    97    98    1
   136    72    74    1
   137    72    69    1
   138    98   100   ar
   139    98    99   ar
   140    69    68    1
   141    69    70    1
   142    90    89   ar
   143    82    80    1
   144   173   172    1
   145    89    91   ar
   146    89    88    1
   147    86    85    2
   148    70    71    2
   149    87    88    1
   150    87    84    1
   151    81    80    1
   152   172   171    1
   153    80    77    1
   154   183   182   ar
   155   183   181   ar
   156    85    84    1
   157   182   180   ar
   158    84    83    1
   159    77    76    1
   160    77    78    1
   161   181   179   ar
   162   171   170    1
   163   180   179   ar
   164   179   178    1
   165   170   169    1
   166    78    79    2
   167   178   175    1
   168   168   167    2
   169   169   166    1
   170   175   174    1
   171   175   176    1
   172   167   174   am
   173   167   166    1
   174   166   165    1
   175   177   176    2
