@<TRIPOS>MOLECULE
tmp/1qo8A02.pdb
 138 133 0 0 0
SMALL
GASTEIGER

@<TRIPOS>ATOM
      1  N         59.1330   65.7750   -3.4760 N.3     4  MET4       -0.1245
      2  CA        59.1610   67.2130   -3.5870 C.3     4  MET4        0.1570
      3  C         60.5300   67.8210   -3.2340 C.2     4  MET4        0.2261
      4  O         60.8720   68.9260   -3.7140 O.2     4  MET4       -0.2867
      5  CB        58.0930   67.7340   -2.5930 C.3     4  MET4        0.0387
      6  CG        57.8450   69.2240   -2.7540 C.3     4  MET4        0.0595
      7  SD        56.3210   69.7750   -1.9270 S.3     4  MET4       -0.1393
      8  CE        56.7480   70.0330   -0.2680 C.3     4  MET4        0.0692
      9  N         62.9740   67.4120   -6.1370 N.3     7  PHE7       -0.1227
     10  CA        62.5850   68.4410   -7.0950 C.3     7  PHE7        0.1736
     11  C         63.0970   69.8260   -6.6810 C.2     7  PHE7        0.2595
     12  O         63.6960   70.4610   -7.5720 O.2     7  PHE7       -0.2718
     13  CB        61.0640   68.4600   -7.3030 C.3     7  PHE7        0.0547
     14  CG        60.4870   69.4710   -8.2210 C.ar    7  PHE7       -0.0202
     15  CD1       60.1110   70.7060   -7.7080 C.ar    7  PHE7       -0.0042
     16  CD2       60.3070   69.1790   -9.5660 C.ar    7  PHE7       -0.0042
     17  CE1       59.5680   71.6360   -8.5920 C.ar    7  PHE7       -0.0003
     18  CE2       59.7270   70.1120  -10.4280 C.ar    7  PHE7       -0.0003
     19  CZ        59.3570   71.3430   -9.9170 C.ar    7  PHE7       -0.0000
     20  N         62.9280   70.2450   -5.4460 N.am    8  HIS8       -0.1975
     21  CA        63.3830   71.5360   -5.0290 C.3     8  HIS8        0.1656
     22  C         64.9440   71.6110   -4.9060 C.2     8  HIS8        0.2291
     23  O         65.5280   72.6920   -5.1810 O.2     8  HIS8       -0.2864
     24  CB        62.8110   72.0300   -3.6860 C.3     8  HIS8        0.0771
     25  CG        61.3680   72.4270   -3.8300 C.ar    8  HIS8        0.0820
     26  ND1       60.3900   71.4350   -4.0140 N.ar    8  HIS8       -0.2267
     27  CD2       60.7480   73.6400   -3.8870 C.ar    8  HIS8        0.1154
     28  CE1       59.2270   72.0500   -4.1430 C.ar    8  HIS8        0.1986
     29  NE2       59.4170   73.3570   -4.1320 N.ar    8  HIS8       -0.2212
     30  N         66.6670   72.3050   -7.9810 N.3    11  MET11      -0.1230
     31  CA        66.6190   73.6830   -8.4430 C.3    11  MET11       0.1702
     32  C         67.5290   74.4730   -7.5280 C.2    11  MET11       0.2592
     33  O         68.0990   75.4270   -8.0290 O.2    11  MET11      -0.2718
     34  CB        65.2250   74.2650   -8.4850 C.3    11  MET11       0.0401
     35  CG        64.1890   73.6320   -9.3930 C.3    11  MET11       0.0596
     36  SD        62.6310   74.5360   -9.1480 S.3    11  MET11      -0.1393
     37  CE        62.1400   73.8860   -7.5210 C.3    11  MET11       0.0692
     38  N         67.6740   74.1380   -6.2640 N.am   12  GLY12      -0.1957
     39  CA        68.2870   75.0480   -5.2870 C.3    12  GLY12       0.1869
     40  C         69.3350   74.2010   -4.5550 C.2    12  GLY12       0.2309
     41  O         70.3950   73.8140   -5.1260 O.2    12  GLY12      -0.2863
     42  N         67.3670   74.8920    0.4490 N.3    16  SER16      -0.1202
     43  CA        66.1520   75.6640    0.1180 C.3    16  SER16       0.2020
     44  C         65.0980   75.4640    1.2450 C.2    16  SER16       0.2619
     45  O         64.5140   76.4790    1.6510 O.2    16  SER16      -0.2717
     46  CB        65.4950   75.3170   -1.1680 C.3    16  SER16       0.2103
     47  OG        66.1720   75.2830   -2.3600 O.3    16  SER16      -0.2182
     48  N         64.8430   74.2760    1.7900 N.am   17  CYS17      -0.1969
     49  CA        63.9310   74.3070    2.9510 C.3    17  CYS17       0.1712
     50  C         64.5520   74.0220    4.2800 C.2    17  CYS17       0.2296
     51  O         63.8180   74.2080    5.2680 O.2    17  CYS17      -0.2864
     52  CB        62.7170   73.3700    2.7890 C.3    17  CYS17       0.0983
     53  SG        62.1270   73.3530    1.1190 S.3    17  CYS17      -0.0798
     54  N         61.0810   74.8680    7.8030 N.3    31  GLU31      -0.1245
     55  CA        60.7220   74.4710    6.4600 C.3    31  GLU31       0.1567
     56  C         59.4760   75.2350    5.9470 C.2    31  GLU31       0.2260
     57  O         59.4120   75.6890    4.7600 O.2    31  GLU31      -0.2867
     58  CB        60.5190   72.9590    6.4370 C.3    31  GLU31       0.0388
     59  CG        61.7490   72.1260    6.7440 C.3    31  GLU31       0.1160
     60  CD        62.2330   72.0730    8.1550 C.2    31  GLU31       0.3649
     61  OE1       61.5810   72.5590    9.1130 O.co2  31  GLU31      -0.2457
     62  OE2       63.3750   71.5750    8.3020 O.co2  31  GLU31      -0.2457
     63  N         59.9810   78.7620    4.9090 N.3    34  GLN34      -0.1231
     64  CA        60.5490   78.7470    3.5800 C.3    34  GLN34       0.1698
     65  C         59.6030   78.5410    2.4460 C.2    34  GLN34       0.2589
     66  O         59.6350   79.3410    1.4860 O.2    34  GLN34      -0.2718
     67  CB        61.6470   77.6290    3.5010 C.3    34  GLN34       0.0381
     68  CG        62.7960   77.9230    4.4830 C.3    34  GLN34       0.0905
     69  CD        63.4170   79.2820    4.1530 C.2    34  GLN34       0.2608
     70  OE1       63.3310   80.1260    5.0000 O.2    34  GLN34      -0.2717
     71  NE2       63.9080   79.6270    2.9740 N.am   34  GLN34      -0.0878
     72  N         58.6760   77.5560    2.5360 N.am   35  CYS35      -0.2023
     73  CA        57.4940   77.5650    1.6690 C.3    35  CYS35       0.1398
     74  C         56.9170   78.9470    1.5230 C.3    35  CYS35       0.2045
     75  O         56.7470   79.2780    0.3560 O.3    35  CYS35      -0.2185
     76  CB        56.2620   76.7100    2.0770 C.3    35  CYS35       0.0930
     77  SG        56.7540   75.1880    2.9230 S.3    35  CYS35      -0.0802
     78  N         59.3190   81.7060   -0.3970 N.3    38  CYS38      -0.1221
     79  CA        59.2590   81.6250   -1.8400 C.3    38  CYS38       0.1808
     80  C         57.8730   81.6640   -2.4420 C.2    38  CYS38       0.2601
     81  O         57.7820   82.0100   -3.6500 O.2    38  CYS38      -0.2717
     82  CB        60.0260   80.4330   -2.3610 C.3    38  CYS38       0.0970
     83  SG        61.7850   80.4430   -1.7340 S.3    38  CYS38      -0.0800
     84  N         56.8890   81.0560   -1.7420 N.am   39  HIS39      -0.1975
     85  CA        55.6330   80.8850   -2.5230 C.3    39  HIS39       0.1656
     86  C         54.5820   81.9150   -2.1010 C.2    39  HIS39       0.2291
     87  O         53.5240   81.9860   -2.7490 O.2    39  HIS39      -0.2864
     88  CB        55.0530   79.4880   -2.2510 C.3    39  HIS39       0.0771
     89  CG        55.6420   78.4520   -3.1630 C.ar   39  HIS39       0.0820
     90  ND1       55.3860   78.4910   -4.5150 N.ar   39  HIS39      -0.2267
     91  CD2       56.4860   77.4120   -2.9380 C.ar   39  HIS39       0.1154
     92  CE1       55.9870   77.4650   -5.1130 C.ar   39  HIS39       0.1986
     93  NE2       56.6170   76.8210   -4.1530 N.ar   39  HIS39      -0.2212
     94  N         51.9100   74.5460    5.5680 N.3    64  CYS64      -0.1221
     95  CA        51.8900   73.8520    4.3130 C.3    64  CYS64       0.1808
     96  C         52.1290   72.3530    4.3560 C.2    64  CYS64       0.2601
     97  O         51.5530   71.6000    3.5660 O.2    64  CYS64      -0.2717
     98  CB        52.8660   74.5180    3.2590 C.3    64  CYS64       0.0970
     99  SG        52.9810   76.3090    3.5510 S.3    64  CYS64      -0.0800
    100  N         53.0960   71.8300    5.1360 N.am   65  THR65      -0.1953
    101  CA        53.3820   70.4330    5.2450 C.3    65  THR65       0.1897
    102  C         52.3550   69.7030    6.1300 C.2    65  THR65       0.2313
    103  O         52.4780   68.4760    6.2650 O.2    65  THR65      -0.2863
    104  CB        54.8300   70.2650    5.8660 C.3    65  THR65       0.1794
    105  OG1       54.7720   70.8130    7.1750 O.3    65  THR65      -0.2208
    106  CG2       55.8200   71.1390    5.0190 C.3    65  THR65       0.0378
    107  N         51.3980   69.2130    1.9420 N.3    68  HIS68      -0.1297
    108  CA        52.4600   68.9400    0.9690 C.3    68  HIS68       0.1306
    109  C         53.5820   68.1990    1.7410 C.3    68  HIS68       0.2013
    110  O         53.8690   68.7060    2.8030 O.3    68  HIS68      -0.2188
    111  CB        53.0880   70.2220    0.4220 C.3    68  HIS68       0.0691
    112  CG        52.0240   70.8430   -0.4880 C.ar   68  HIS68       0.0814
    113  ND1       51.8200   70.2610   -1.7170 N.ar   68  HIS68      -0.2268
    114  CD2       51.2150   71.8870   -0.3840 C.ar   68  HIS68       0.1154
    115  CE1       50.9470   70.9680   -2.3920 C.ar   68  HIS68       0.1986
    116  NE2       50.5520   71.9490   -1.6250 N.ar   68  HIS68      -0.2212
    117  N         57.6650   66.7800    2.1250 N.3    70  GLY70      -0.1225
    118  CA        59.0270   66.7430    1.5930 C.3    70  GLY70       0.1811
    119  C         59.3600   65.4760    0.8580 C.2    70  GLY70       0.2280
    120  O         59.9950   65.4540   -0.2120 O.2    70  GLY70      -0.2866
    121  N         50.1670   67.6990   -6.5130 N.3    90  PRO90      -0.2102
    122  CA        51.5880   67.6980   -7.0040 C.3    90  PRO90       0.1504
    123  C         52.3660   66.6310   -6.2350 C.2    90  PRO90       0.2575
    124  O         52.1950   66.4100   -5.0290 O.2    90  PRO90      -0.2718
    125  CB        52.0580   69.1010   -6.6290 C.3    90  PRO90       0.0282
    126  CG        50.8040   69.9220   -6.4580 C.3    90  PRO90       0.0208
    127  CD        49.7610   68.9630   -5.8820 C.3    90  PRO90       0.0893
    128  N         53.3180   65.9320   -6.8380 N.am   91  PHE91      -0.1977
    129  CA        54.2370   65.0040   -6.2240 C.3    91  PHE91       0.1639
    130  C         53.5470   63.7500   -5.6730 C.2    91  PHE91       0.2290
    131  O         53.9100   63.1640   -4.6300 O.2    91  PHE91      -0.2864
    132  CB        55.0710   65.7090   -5.1570 C.3    91  PHE91       0.0560
    133  CG        55.8060   66.9380   -5.6350 C.ar   91  PHE91      -0.0200
    134  CD1       56.9460   66.7910   -6.4160 C.ar   91  PHE91      -0.0042
    135  CD2       55.3100   68.2220   -5.3520 C.ar   91  PHE91      -0.0042
    136  CE1       57.6410   67.9310   -6.8640 C.ar   91  PHE91      -0.0003
    137  CE2       55.9920   69.3290   -5.8410 C.ar   91  PHE91      -0.0003
    138  CZ        57.1990   69.2130   -6.5560 C.ar   91  PHE91      -0.0000
@<TRIPOS>BOND
     1    18    19   ar
     2    18    16   ar
     3    19    17   ar
     4    16    14   ar
     5    35    36    1
     6    35    34    1
     7    36    37    1
     8    17    15   ar
     9    34    31    1
    10    31    30    1
    11    31    32    1
    12    14    15   ar
    13    14    13    1
    14    33    32    2
    15    12    11    2
    16    32    38   am
    17    13    10    1
    18    10    11    1
    19    10     9    1
    20   122   125    1
    21   122   121    1
    22   122   123    1
    23   136   138   ar
    24   136   134   ar
    25   128   123   am
    26   128   129    1
    27    11    20   am
    28   125   126    1
    29   138   137   ar
    30   121   127    1
    31   126   127    1
    32   134   133   ar
    33    38    39    1
    34   123   124    2
    35   129   130    1
    36   129   132    1
    37   137   135   ar
    38   130   131    2
    39   133   135   ar
    40   133   132    1
    41    20    21    1
    42    39    40    1
    43    23    22    2
    44    41    40    2
    45    92    90   ar
    46    92    93   ar
    47    21    22    1
    48    21    24    1
    49    90    89   ar
    50    93    91   ar
    51    28    29   ar
    52    28    26   ar
    53    29    27   ar
    54    26    25   ar
    55    27    25   ar
    56    25    24    1
    57     4     3    2
    58    81    80    2
    59     2     1    1
    60     2     3    1
    61     2     5    1
    62    89    91   ar
    63    89    88    1
    64     6     5    1
    65     6     7    1
    66    87    86    2
    67    85    88    1
    68    85    86    1
    69    85    84    1
    70    80    79    1
    71    80    84   am
    72   115   113   ar
    73   115   116   ar
    74    82    79    1
    75    82    83    1
    76    47    46    1
    77     7     8    1
    78    79    78    1
    79   113   112   ar
    80   116   114   ar
    81    46    43    1
    82   112   114   ar
    83   112   111    1
    84   120   119    2
    85    43    42    1
    86    43    44    1
    87    75    74    1
    88   111   108    1
    89   119   118    1
    90   108   109    1
    91   108   107    1
    92    53    52    1
    93    44    45    2
    94    44    48   am
    95    66    65    2
    96    74    73    1
    97   118   117    1
    98    73    76    1
    99    73    72    1
   100   109   110    1
   101    48    49    1
   102    76    77    1
   103    65    72   am
   104    65    64    1
   105    52    49    1
   106    49    50    1
   107    71    69   am
   108    98    99    1
   109    98    95    1
   110    67    64    1
   111    67    68    1
   112    97    96    2
   113    64    63    1
   114    69    68    1
   115    69    70    2
   116    50    51    2
   117    95    96    1
   118    95    94    1
   119    96   100   am
   120    57    56    2
   121   106   104    1
   122   100   101    1
   123   101   104    1
   124   101   102    1
   125   104   105    1
   126    56    55    1
   127   102   103    2
   128    58    55    1
   129    58    59    1
   130    55    54    1
   131    59    60    1
   132    60    62   ar
   133    60    61   ar
