@<TRIPOS>MOLECULE
tmp/1qo8A01.pdb
 194 191 0 0 0
SMALL
GASTEIGER

@<TRIPOS>ATOM
      1  N         58.6760   77.5560    2.5360 N.3    35  CYS35      -0.1221
      2  CA        57.4940   77.5650    1.6690 C.3    35  CYS35       0.1808
      3  C         56.9170   78.9470    1.5230 C.2    35  CYS35       0.2601
      4  O         56.7470   79.2780    0.3560 O.2    35  CYS35      -0.2717
      5  CB        56.2620   76.7100    2.0770 C.3    35  CYS35       0.0970
      6  SG        56.7540   75.1880    2.9230 S.3    35  CYS35      -0.0800
      7  N         56.5810   79.6670    2.5540 N.am   36  LYS36      -0.1979
      8  CA        55.8410   80.9100    2.4500 C.3    36  LYS36       0.1596
      9  C         56.7210   82.0300    1.8870 C.2    36  LYS36       0.2287
     10  O         56.1900   82.7630    1.0580 O.2    36  LYS36      -0.2864
     11  CB        55.2240   81.3050    3.8110 C.3    36  LYS36       0.0298
     12  CG        54.0310   80.4340    4.2740 C.3    36  LYS36       0.0038
     13  CD        53.5790   80.7800    5.7140 C.3    36  LYS36       0.0206
     14  CE        52.4010   79.8770    6.1530 C.3    36  LYS36       0.1093
     15  NZ        51.6380   80.4690    7.3280 N.3    36  LYS36      -0.1314
     16  N         56.8890   81.0560   -1.7420 N.3    39  HIS39      -0.1226
     17  CA        55.6330   80.8850   -2.5230 C.3    39  HIS39       0.1752
     18  C         54.5820   81.9150   -2.1010 C.2    39  HIS39       0.2596
     19  O         53.5240   81.9860   -2.7490 O.2    39  HIS39      -0.2718
     20  CB        55.0530   79.4880   -2.2510 C.3    39  HIS39       0.0759
     21  CG        55.6420   78.4520   -3.1630 C.ar   39  HIS39       0.0818
     22  ND1       55.3860   78.4910   -4.5150 N.ar   39  HIS39      -0.2268
     23  CD2       56.4860   77.4120   -2.9380 C.ar   39  HIS39       0.1154
     24  CE1       55.9870   77.4650   -5.1130 C.ar   39  HIS39       0.1986
     25  NE2       56.6170   76.8210   -4.1530 N.ar   39  HIS39      -0.2212
     26  N         54.7940   82.6000   -1.0130 N.am   40  GLY40      -0.1957
     27  CA        53.6890   83.4930   -0.5760 C.3    40  GLY40       0.1869
     28  C         52.8790   82.8250    0.5580 C.2    40  GLY40       0.2309
     29  O         52.9440   81.6000    0.7420 O.2    40  GLY40      -0.2863
     30  N         48.8830   82.2910    2.4330 N.3    42  TYR42      -0.1241
     31  CA        47.6180   81.8110    1.9220 C.3    42  TYR42       0.1605
     32  C         46.8420   82.9210    1.1990 C.2    42  TYR42       0.2264
     33  O         46.1880   82.6240    0.2210 O.2    42  TYR42      -0.2867
     34  CB        46.7150   81.1440    2.9980 C.3    42  TYR42       0.0534
     35  CG        47.2660   79.8080    3.5130 C.ar   42  TYR42      -0.0201
     36  CD1       47.2450   78.6380    2.7700 C.ar   42  TYR42      -0.0009
     37  CD2       47.8310   79.7430    4.7500 C.ar   42  TYR42      -0.0009
     38  CE1       47.7270   77.4520    3.2590 C.ar   42  TYR42       0.0417
     39  CE2       48.3720   78.5780    5.2640 C.ar   42  TYR42       0.0417
     40  CZ        48.2410   77.4410    4.5220 C.ar   42  TYR42       0.1957
     41  OH        48.7940   76.2990    5.0320 O.3    42  TYR42      -0.2866
     42  N         48.2130   82.8100   -2.0400 N.3    45  LEU45      -0.1245
     43  CA        47.9920   81.5870   -2.8030 C.3    45  LEU45       0.1561
     44  C         46.5010   81.4340   -3.1180 C.2    45  LEU45       0.2260
     45  O         46.1670   80.7030   -4.0350 O.2    45  LEU45      -0.2867
     46  CB        48.4720   80.3230   -2.0750 C.3    45  LEU45       0.0270
     47  CG        50.0160   80.2750   -1.8880 C.3    45  LEU45       0.0019
     48  CD1       50.3000   79.2090   -0.8470 C.3    45  LEU45       0.0001
     49  CD2       50.7130   79.8980   -3.2000 C.3    45  LEU45       0.0001
     50  N         37.4700   78.8220   -7.5550 N.3    50  LEU50      -0.1245
     51  CA        37.9700   77.4970   -7.2140 C.3    50  LEU50       0.1561
     52  C         37.0420   76.8590   -6.1810 C.2    50  LEU50       0.2260
     53  O         36.7970   77.4900   -5.1730 O.2    50  LEU50      -0.2867
     54  CB        39.3920   77.5430   -6.6460 C.3    50  LEU50       0.0270
     55  CG        39.9540   76.1350   -6.3660 C.3    50  LEU50       0.0019
     56  CD1       40.8310   75.7130   -7.5320 C.3    50  LEU50       0.0001
     57  CD2       40.6900   76.1040   -5.0400 C.3    50  LEU50       0.0001
     58  N         42.0470   74.7940   -1.0570 N.3    54  PRO54      -0.2102
     59  CA        42.9470   74.1330   -0.1250 C.3    54  PRO54       0.1504
     60  C         43.6940   75.2310    0.5630 C.2    54  PRO54       0.2575
     61  O         44.0160   75.1680    1.7530 O.2    54  PRO54      -0.2718
     62  CB        43.7460   73.1800   -0.9950 C.3    54  PRO54       0.0282
     63  CG        43.2820   73.3490   -2.3910 C.3    54  PRO54       0.0208
     64  CD        42.3820   74.5500   -2.4680 C.3    54  PRO54       0.0893
     65  N         43.8820   76.4030   -0.1320 N.am   55  HIS55      -0.1976
     66  CA        44.6530   77.4530    0.4870 C.3    55  HIS55       0.1656
     67  C         43.7720   78.5050    1.0820 C.2    55  HIS55       0.2291
     68  O         44.3020   79.6130    1.2480 O.2    55  HIS55      -0.2864
     69  CB        45.5890   78.1800   -0.5510 C.3    55  HIS55       0.0771
     70  CG        46.3910   77.1140   -1.2400 C.ar   55  HIS55       0.0820
     71  ND1       46.3760   76.9880   -2.6090 N.ar   55  HIS55      -0.2267
     72  CD2       47.2230   76.1420   -0.7630 C.ar   55  HIS55       0.1154
     73  CE1       47.0790   75.9270   -2.9740 C.ar   55  HIS55       0.1986
     74  NE2       47.6340   75.4180   -1.8850 N.ar   55  HIS55      -0.2212
     75  N         40.6920   77.9590    3.8550 N.3    57  SER57      -0.1217
     76  CA        39.7190   76.9880    4.3370 C.3    57  SER57       0.1889
     77  C         39.4230   77.4600    5.7410 C.2    57  SER57       0.2288
     78  O         40.2540   78.2340    6.2640 O.2    57  SER57      -0.2866
     79  CB        40.3530   75.6280    4.2090 C.3    57  SER57       0.2089
     80  OG        41.1330   75.3280    5.3800 O.3    57  SER57      -0.2183
     81  N         40.1170   75.7030    8.3940 N.3    59  LEU59      -0.1301
     82  CA        41.3520   75.3240    9.1280 C.3    59  LEU59       0.1247
     83  C         42.2470   76.5210    9.4490 C.3    59  LEU59       0.2009
     84  O         42.8910   76.4230   10.5000 O.3    59  LEU59      -0.2188
     85  CB        42.1720   74.2910    8.3470 C.3    59  LEU59       0.0217
     86  CG        41.4260   73.0000    7.9860 C.3    59  LEU59       0.0015
     87  CD1       42.2130   71.9750    7.2320 C.3    59  LEU59       0.0000
     88  CD2       40.8620   72.3400    9.2730 C.3    59  LEU59       0.0000
     89  N         47.6090   77.1900    8.7820 N.3    62  ILE62      -0.1231
     90  CA        48.3310   76.0160    9.2620 C.3    62  ILE62       0.1692
     91  C         49.6090   75.7500    8.4490 C.2    62  ILE62       0.2592
     92  O         49.6750   76.2870    7.3200 O.2    62  ILE62      -0.2718
     93  CB        47.4230   74.7700    9.0780 C.3    62  ILE62       0.0266
     94  CG1       47.0530   74.5870    7.6170 C.3    62  ILE62       0.0019
     95  CG2       46.2070   74.9230    9.9950 C.3    62  ILE62       0.0020
     96  CD1       46.2580   73.2610    7.3980 C.3    62  ILE62       0.0001
     97  N         50.4650   74.7960    8.8740 N.am   63  ASN63      -0.1960
     98  CA        51.6310   74.4600    8.0810 C.3    63  ASN63       0.1819
     99  C         51.2820   74.0260    6.6700 C.2    63  ASN63       0.2621
    100  O         50.4100   73.1570    6.6520 O.2    63  ASN63      -0.2715
    101  CB        52.5420   73.4280    8.7330 C.3    63  ASN63       0.1195
    102  CG        53.3930   73.9870    9.8570 C.2    63  ASN63       0.2630
    103  OD1       53.7200   75.1790    9.9220 O.2    63  ASN63      -0.2716
    104  ND2       53.7400   73.1930   10.8770 N.am   63  ASN63      -0.0877
    105  N         51.9100   74.5460    5.5680 N.am   64  CYS64      -0.1968
    106  CA        51.8900   73.8520    4.3130 C.3    64  CYS64       0.1712
    107  C         52.1290   72.3530    4.3560 C.2    64  CYS64       0.2296
    108  O         51.5530   71.6000    3.5660 O.2    64  CYS64      -0.2864
    109  CB        52.8660   74.5180    3.2590 C.3    64  CYS64       0.0983
    110  SG        52.9810   76.3090    3.5510 S.3    64  CYS64      -0.0798
    111  N         49.7560   69.2370    4.4860 N.3    67  CYS67      -0.1221
    112  CA        49.5020   68.4420    3.3270 C.3    67  CYS67       0.1808
    113  C         50.7230   68.1370    2.4220 C.2    67  CYS67       0.2598
    114  O         50.7350   67.0430    1.8470 O.2    67  CYS67      -0.2717
    115  CB        48.4940   69.2300    2.3990 C.3    67  CYS67       0.0970
    116  SG        46.9650   69.6690    3.3700 S.3    67  CYS67      -0.0800
    117  N         51.3980   69.2130    1.9420 N.am   68  HIS68      -0.2029
    118  CA        52.4600   68.9400    0.9690 C.3    68  HIS68       0.1342
    119  C         53.5820   68.1990    1.7410 C.3    68  HIS68       0.2040
    120  O         53.8690   68.7060    2.8030 O.3    68  HIS68      -0.2185
    121  CB        53.0880   70.2220    0.4220 C.3    68  HIS68       0.0718
    122  CG        52.0240   70.8430   -0.4880 C.ar   68  HIS68       0.0817
    123  ND1       51.8200   70.2610   -1.7170 N.ar   68  HIS68      -0.2268
    124  CD2       51.2150   71.8870   -0.3840 C.ar   68  HIS68       0.1154
    125  CE1       50.9470   70.9680   -2.3920 C.ar   68  HIS68       0.1986
    126  NE2       50.5520   71.9490   -1.6250 N.ar   68  HIS68      -0.2212
    127  N         46.0490   65.0770    1.2010 N.3    76  PHE76      -0.1227
    128  CA        44.9950   66.1160    1.0530 C.3    76  PHE76       0.1736
    129  C         44.2620   66.1450    2.3440 C.2    76  PHE76       0.2595
    130  O         43.2460   65.3780    2.4830 O.2    76  PHE76      -0.2718
    131  CB        44.1070   65.6760   -0.1420 C.3    76  PHE76       0.0547
    132  CG        43.0070   66.6800   -0.4210 C.ar   76  PHE76      -0.0202
    133  CD1       43.2970   68.0420   -0.5120 C.ar   76  PHE76      -0.0042
    134  CD2       41.7330   66.1770   -0.6910 C.ar   76  PHE76      -0.0042
    135  CE1       42.2720   68.9300   -0.8500 C.ar   76  PHE76      -0.0003
    136  CE2       40.7460   67.0810   -1.0860 C.ar   76  PHE76      -0.0003
    137  CZ        41.0200   68.4160   -1.1370 C.ar   76  PHE76      -0.0000
    138  N         44.5670   67.0350    3.2750 N.am   77  TYR77      -0.1962
    139  CA        44.1560   66.7410    4.6470 C.3    77  TYR77       0.1771
    140  C         42.6130   66.9140    4.7680 C.2    77  TYR77       0.2619
    141  O         42.0190   66.4500    5.7390 O.2    77  TYR77      -0.2715
    142  CB        44.7470   67.7110    5.6670 C.3    77  TYR77       0.0574
    143  CG        44.8950   67.1070    7.0580 C.ar   77  TYR77      -0.0198
    144  CD1       46.0470   66.3950    7.4280 C.ar   77  TYR77      -0.0009
    145  CD2       43.9280   67.2840    8.0170 C.ar   77  TYR77      -0.0009
    146  CE1       46.1950   65.8220    8.7150 C.ar   77  TYR77       0.0417
    147  CE2       44.0610   66.7590    9.2980 C.ar   77  TYR77       0.0417
    148  CZ        45.2190   66.0650    9.6410 C.ar   77  TYR77       0.1957
    149  OH        45.3140   65.5970   10.9200 O.3    77  TYR77      -0.2866
    150  N         42.0050   67.7610    3.9340 N.am   78  CYS78      -0.1968
    151  CA        40.5460   67.8880    3.8040 C.3    78  CYS78       0.1712
    152  C         39.7540   66.6130    3.8960 C.2    78  CYS78       0.2296
    153  O         38.7560   66.5100    4.6250 O.2    78  CYS78      -0.2864
    154  CB        40.1850   68.5160    2.4300 C.3    78  CYS78       0.0983
    155  SG        41.0980   70.1220    2.3340 S.3    78  CYS78      -0.0798
    156  N         39.1560   65.0750   -6.2110 N.3    86  ILE86      -0.1231
    157  CA        40.2160   66.0010   -6.6460 C.3    86  ILE86       0.1692
    158  C         41.2500   65.2290   -7.4520 C.2    86  ILE86       0.2592
    159  O         41.2860   64.0040   -7.3530 O.2    86  ILE86      -0.2718
    160  CB        40.7300   66.7360   -5.3830 C.3    86  ILE86       0.0266
    161  CG1       40.8020   68.2130   -5.6940 C.3    86  ILE86       0.0019
    162  CG2       42.0000   66.2080   -4.7680 C.3    86  ILE86       0.0020
    163  CD1       40.3360   69.0360   -4.4830 C.3    86  ILE86       0.0001
    164  N         41.9160   65.8880   -8.3630 N.am   87  LYS87      -0.1966
    165  CA        43.0100   65.2380   -9.1170 C.3    87  LYS87       0.1713
    166  C         44.1820   65.1210   -8.1430 C.2    87  LYS87       0.2458
    167  O         44.1700   65.7960   -7.1290 O.2    87  LYS87      -0.2730
    168  CB        43.4300   65.9800  -10.3740 C.3    87  LYS87       0.0311
    169  CG        43.8850   67.3760  -10.0190 C.3    87  LYS87       0.0038
    170  CD        44.1140   68.2960  -11.2210 C.3    87  LYS87       0.0206
    171  CE        45.0460   69.4110  -10.7400 C.3    87  LYS87       0.1093
    172  NZ        44.9670   70.5980  -11.6260 N.3    87  LYS87      -0.1314
    173  N         44.9540   64.0830   -8.3450 N.am   88  PRO88      -0.2716
    174  CA        46.2070   63.8630   -7.5670 C.3    88  PRO88       0.1536
    175  C         46.9710   65.1490   -7.3760 C.2    88  PRO88       0.2598
    176  O         47.0910   66.0210   -8.2390 O.2    88  PRO88      -0.2715
    177  CB        46.9450   62.7880   -8.3620 C.3    88  PRO88       0.0310
    178  CG        45.8310   62.0820   -9.1030 C.3    88  PRO88       0.0237
    179  CD        44.8820   63.1760   -9.5360 C.3    88  PRO88       0.0939
    180  N         47.3330   65.4680   -6.1440 N.am   89  MET89      -0.1964
    181  CA        48.1520   66.5480   -5.7210 C.3    89  MET89       0.1721
    182  C         49.5500   66.5510   -6.4200 C.2    89  MET89       0.2458
    183  O         49.9710   65.5400   -6.9330 O.2    89  MET89      -0.2730
    184  CB        48.4030   66.4060   -4.2270 C.3    89  MET89       0.0427
    185  CG        47.2900   67.0770   -3.4320 C.3    89  MET89       0.0599
    186  SD        47.5260   66.9670   -1.6880 S.3    89  MET89      -0.1393
    187  CE        48.7870   68.2040   -1.3440 C.3    89  MET89       0.0692
    188  N         50.1670   67.6990   -6.5130 N.am   90  PRO90      -0.2727
    189  CA        51.5880   67.6980   -7.0040 C.3    90  PRO90       0.1402
    190  C         52.3660   66.6310   -6.2350 C.2    90  PRO90       0.2269
    191  O         52.1950   66.4100   -5.0290 O.2    90  PRO90      -0.2865
    192  CB        52.0580   69.1010   -6.6290 C.3    90  PRO90       0.0296
    193  CG        50.8040   69.9220   -6.4580 C.3    90  PRO90       0.0237
    194  CD        49.7610   68.9630   -5.8820 C.3    90  PRO90       0.0939
@<TRIPOS>BOND
     1   172   171    1
     2   170   171    1
     3   170   169    1
     4   168   169    1
     5   168   165    1
     6   179   178    1
     7   179   173    1
     8   165   164    1
     9   165   166    1
    10   178   177    1
    11   164   158   am
    12   177   174    1
    13   173   166   am
    14   173   174    1
    15   176   175    2
    16   166   167    2
    17   174   175    1
    18    50    51    1
    19    56    55    1
    20   158   159    2
    21   158   157    1
    22   175   180   am
    23    51    54    1
    24    51    52    1
    25   189   192    1
    26   189   188    1
    27   189   190    1
    28   183   182    2
    29    54    55    1
    30   157   156    1
    31   157   160    1
    32   192   193    1
    33   188   182   am
    34   188   194    1
    35   193   194    1
    36   182   181    1
    37    55    57    1
    38   190   191    2
    39    52    53    2
    40   180   181    1
    41   181   184    1
    42   161   160    1
    43   161   163    1
    44   160   162    1
    45    24    22   ar
    46    24    25   ar
    47    22    21   ar
    48   184   185    1
    49    25    23   ar
    50    45    44    2
    51   185   186    1
    52    49    47    1
    53    21    23   ar
    54    21    20    1
    55    44    43    1
    56    73    71   ar
    57    73    74   ar
    58    43    46    1
    59    43    42    1
    60    19    18    2
    61    71    70   ar
    62    17    20    1
    63    17    18    1
    64    17    16    1
    65    64    63    1
    66    64    58    1
    67   125   123   ar
    68   125   126   ar
    69    63    62    1
    70    18    26   am
    71    46    47    1
    72    47    48    1
    73    74    72   ar
    74   123   122   ar
    75   186   187    1
    76   126   124   ar
    77    70    72   ar
    78    70    69    1
    79   137   136   ar
    80   137   135   ar
    81   136   134   ar
    82    58    59    1
    83    26    27    1
    84    62    59    1
    85   135   133   ar
    86   134   132   ar
    87    27    28    1
    88    69    66    1
    89   133   132   ar
    90   122   124   ar
    91   122   121    1
    92   132   131    1
    93   131   128    1
    94    65    66    1
    95    65    60   am
    96    59    60    1
    97    33    32    2
    98     4     3    2
    99   121   118    1
   100    66    67    1
   101    28    29    2
   102    60    61    2
   103   118   119    1
   104   118   117    1
   105   128   127    1
   106   128   129    1
   107    10     9    2
   108    67    68    2
   109    32    31    1
   110     3     2    1
   111     3     7   am
   112     2     5    1
   113     2     1    1
   114   119   120    1
   115   114   113    2
   116     9     8    1
   117    31    30    1
   118    31    34    1
   119   117   113   am
   120     5     6    1
   121   155   154    1
   122   129   130    2
   123   129   138   am
   124   115   112    1
   125   115   116    1
   126   113   112    1
   127   154   151    1
   128     8     7    1
   129     8    11    1
   130    36    38   ar
   131    36    35   ar
   132    34    35    1
   133    38    40   ar
   134   109   110    1
   135   109   106    1
   136   138   139    1
   137   112   111    1
   138    35    37   ar
   139   108   107    2
   140   151   152    1
   141   151   150    1
   142    11    12    1
   143    75    76    1
   144   152   153    2
   145   150   140   am
   146    79    76    1
   147    79    80    1
   148    12    13    1
   149   106   107    1
   150   106   105    1
   151    76    77    1
   152    40    41    1
   153    40    39   ar
   154   139   140    1
   155   139   142    1
   156    37    39   ar
   157   140   141    2
   158   105    99   am
   159   142   143    1
   160    13    14    1
   161    77    78    2
   162    14    15    1
   163   100    99    2
   164    99    98    1
   165   143   144   ar
   166   143   145   ar
   167    87    86    1
   168    92    91    2
   169    96    94    1
   170   144   146   ar
   171    94    93    1
   172    86    85    1
   173    86    88    1
   174   145   147   ar
   175    98   101    1
   176    98    97    1
   177    85    82    1
   178    81    82    1
   179    91    97   am
   180    91    90    1
   181   146   148   ar
   182   101   102    1
   183    89    90    1
   184    93    90    1
   185    93    95    1
   186    82    83    1
   187   147   148   ar
   188    83    84    1
   189   148   149    1
   190   102   103    2
   191   102   104   am
