@<TRIPOS>MOLECULE
tmp/1qo8A00.pdb
 227 222 0 0 0
SMALL
GASTEIGER

@<TRIPOS>ATOM
      1  N         36.5670   75.6660   -6.5230 N.3    51  GLN51      -0.1231
      2  CA        35.5220   75.0330   -5.7490 C.3    51  GLN51       0.1698
      3  C         35.8890   74.9190   -4.2740 C.2    51  GLN51       0.2592
      4  O         35.0830   75.3820   -3.4580 O.2    51  GLN51      -0.2718
      5  CB        35.2430   73.6360   -6.3200 C.3    51  GLN51       0.0381
      6  CG        33.7970   73.2130   -6.1290 C.3    51  GLN51       0.0905
      7  CD        33.3240   72.4120   -7.3290 C.2    51  GLN51       0.2608
      8  OE1       33.3150   71.1790   -7.2520 O.2    51  GLN51      -0.2717
      9  NE2       32.9550   73.1370   -8.3870 N.am   51  GLN51      -0.0878
     10  N         37.0510   74.3170   -3.9370 N.am   52  PHE52      -0.1962
     11  CA        37.2470   74.0610   -2.5010 C.3    52  PHE52       0.1771
     12  C         38.1570   75.0240   -1.7990 C.2    52  PHE52       0.2620
     13  O         37.8570   75.5160   -0.7070 O.2    52  PHE52      -0.2715
     14  CB        37.5120   72.5610   -2.2070 C.3    52  PHE52       0.0574
     15  CG        36.2350   71.8310   -2.5490 C.ar   52  PHE52      -0.0200
     16  CD1       35.0410   72.1940   -1.9470 C.ar   52  PHE52      -0.0042
     17  CD2       36.2100   70.8530   -3.5220 C.ar   52  PHE52      -0.0042
     18  CE1       33.8550   71.5650   -2.2830 C.ar   52  PHE52      -0.0003
     19  CE2       35.0260   70.2380   -3.8680 C.ar   52  PHE52      -0.0003
     20  CZ        33.8340   70.5710   -3.2570 C.ar   52  PHE52      -0.0000
     21  N         39.2830   75.3780   -2.3200 N.am   53  ASP53      -0.1958
     22  CA        40.3220   76.2080   -1.8050 C.3    53  ASP53       0.1825
     23  C         40.9980   75.5410   -0.6070 C.2    53  ASP53       0.2464
     24  O         40.9310   75.8920    0.5720 O.2    53  ASP53      -0.2730
     25  CB        40.2080   77.7070   -1.6060 C.3    53  ASP53       0.1450
     26  CG        41.5170   78.3360   -2.1490 C.2    53  ASP53       0.3671
     27  OD1       42.5620   77.6310   -2.3250 O.co2  53  ASP53      -0.2456
     28  OD2       41.5610   79.5480   -2.4130 O.co2  53  ASP53      -0.2456
     29  N         42.0470   74.7940   -1.0570 N.am   54  PRO54      -0.2727
     30  CA        42.9470   74.1330   -0.1250 C.3    54  PRO54       0.1402
     31  C         43.6940   75.2310    0.5630 C.2    54  PRO54       0.2269
     32  O         44.0160   75.1680    1.7530 O.2    54  PRO54      -0.2865
     33  CB        43.7460   73.1800   -0.9950 C.3    54  PRO54       0.0296
     34  CG        43.2820   73.3490   -2.3910 C.3    54  PRO54       0.0237
     35  CD        42.3820   74.5500   -2.4680 C.3    54  PRO54       0.0939
     36  N         40.6920   77.9590    3.8550 N.3    57  SER57      -0.1202
     37  CA        39.7190   76.9880    4.3370 C.3    57  SER57       0.2020
     38  C         39.4230   77.4600    5.7410 C.2    57  SER57       0.2619
     39  O         40.2540   78.2340    6.2640 O.2    57  SER57      -0.2717
     40  CB        40.3530   75.6280    4.2090 C.3    57  SER57       0.2103
     41  OG        41.1330   75.3280    5.3800 O.3    57  SER57      -0.2182
     42  N         38.4300   76.8340    6.4140 N.am   58  HIS58      -0.1961
     43  CA        38.1590   77.1100    7.8180 C.3    58  HIS58       0.1787
     44  C         39.2660   76.6250    8.7680 C.2    58  HIS58       0.2616
     45  O         39.3970   77.1570    9.8790 O.2    58  HIS58      -0.2715
     46  CB        36.7840   76.5210    8.1960 C.3    58  HIS58       0.0785
     47  CG        36.6580   75.0150    8.0180 C.ar   58  HIS58       0.0821
     48  ND1       37.1430   74.1110    8.9240 N.ar   58  HIS58      -0.2267
     49  CD2       36.1630   74.2680    7.0140 C.ar   58  HIS58       0.1154
     50  CE1       36.8680   72.8640    8.4770 C.ar   58  HIS58       0.1986
     51  NE2       36.2400   72.9310    7.2840 N.ar   58  HIS58      -0.2212
     52  N         40.1170   75.7030    8.3940 N.am   59  LEU59      -0.2030
     53  CA        41.3520   75.3240    9.1280 C.3    59  LEU59       0.1282
     54  C         42.2470   76.5210    9.4490 C.3    59  LEU59       0.2036
     55  O         42.8910   76.4230   10.5000 O.3    59  LEU59      -0.2185
     56  CB        42.1720   74.2910    8.3470 C.3    59  LEU59       0.0244
     57  CG        41.4260   73.0000    7.9860 C.3    59  LEU59       0.0018
     58  CD1       42.2130   71.9750    7.2320 C.3    59  LEU59       0.0001
     59  CD2       40.8620   72.3400    9.2730 C.3    59  LEU59       0.0001
     60  N         47.6090   77.1900    8.7820 N.3    62  ILE62      -0.1245
     61  CA        48.3310   76.0160    9.2620 C.3    62  ILE62       0.1561
     62  C         49.6090   75.7500    8.4490 C.2    62  ILE62       0.2260
     63  O         49.6750   76.2870    7.3200 O.2    62  ILE62      -0.2867
     64  CB        47.4230   74.7700    9.0780 C.3    62  ILE62       0.0252
     65  CG1       47.0530   74.5870    7.6170 C.3    62  ILE62       0.0019
     66  CG2       46.2070   74.9230    9.9950 C.3    62  ILE62       0.0019
     67  CD1       46.2580   73.2610    7.3980 C.3    62  ILE62       0.0001
     68  N         44.5670   67.0350    3.2750 N.3    77  TYR77      -0.1227
     69  CA        44.1560   66.7410    4.6470 C.3    77  TYR77       0.1736
     70  C         42.6130   66.9140    4.7680 C.2    77  TYR77       0.2595
     71  O         42.0190   66.4500    5.7390 O.2    77  TYR77      -0.2718
     72  CB        44.7470   67.7110    5.6670 C.3    77  TYR77       0.0548
     73  CG        44.8950   67.1070    7.0580 C.ar   77  TYR77      -0.0200
     74  CD1       46.0470   66.3950    7.4280 C.ar   77  TYR77      -0.0009
     75  CD2       43.9280   67.2840    8.0170 C.ar   77  TYR77      -0.0009
     76  CE1       46.1950   65.8220    8.7150 C.ar   77  TYR77       0.0417
     77  CE2       44.0610   66.7590    9.2980 C.ar   77  TYR77       0.0417
     78  CZ        45.2190   66.0650    9.6410 C.ar   77  TYR77       0.1957
     79  OH        45.3140   65.5970   10.9200 O.3    77  TYR77      -0.2866
     80  N         42.0050   67.7610    3.9340 N.am   78  CYS78      -0.1970
     81  CA        40.5460   67.8880    3.8040 C.3    78  CYS78       0.1712
     82  C         39.7540   66.6130    3.8960 C.2    78  CYS78       0.2296
     83  O         38.7560   66.5100    4.6250 O.2    78  CYS78      -0.2864
     84  CB        40.1850   68.5160    2.4300 C.3    78  CYS78       0.0983
     85  SG        41.0980   70.1220    2.3340 S.3    78  CYS78      -0.0798
     86  N         40.3480   63.8960    5.4460 N.3    80  GLU80      -0.1231
     87  CA        40.2470   63.1580    6.6860 C.3    80  GLU80       0.1699
     88  C         38.7960   63.2270    7.2380 C.2    80  GLU80       0.2592
     89  O         38.3860   62.4890    8.1240 O.2    80  GLU80      -0.2718
     90  CB        41.1280   63.8550    7.7320 C.3    80  GLU80       0.0402
     91  CG        42.6500   63.6240    7.4880 C.3    80  GLU80       0.1161
     92  CD        42.9220   62.1660    7.8320 C.2    80  GLU80       0.3649
     93  OE1       42.0460   61.5100    8.4490 O.co2  80  GLU80      -0.2457
     94  OE2       43.9360   61.5570    7.4730 O.co2  80  GLU80      -0.2457
     95  N         38.1090   64.2870    6.7800 N.am   81  CYS81      -0.1956
     96  CA        36.7500   64.5600    7.1550 C.3    81  CYS81       0.1843
     97  C         35.7930   64.6620    5.9810 C.2    81  CYS81       0.2625
     98  O         34.6900   64.0770    6.1170 O.2    81  CYS81      -0.2714
     99  CB        36.5980   65.8200    7.9660 C.3    81  CYS81       0.0997
    100  SG        37.7440   65.8590    9.3600 S.3    81  CYS81      -0.0797
    101  N         36.2300   65.2570    4.8810 N.am   82  HIS82      -0.1973
    102  CA        35.3250   65.4360    3.7460 C.3    82  HIS82       0.1656
    103  C         35.5600   64.3520    2.7230 C.2    82  HIS82       0.2291
    104  O         36.4540   63.4970    2.8510 O.2    82  HIS82      -0.2864
    105  CB        35.4570   66.7810    3.0810 C.3    82  HIS82       0.0771
    106  CG        35.2840   68.0100    3.9180 C.ar   82  HIS82       0.0820
    107  ND1       34.0060   68.5540    4.2090 N.ar   82  HIS82      -0.2267
    108  CD2       36.1400   68.8080    4.5280 C.ar   82  HIS82       0.1154
    109  CE1       34.1780   69.6550    4.9440 C.ar   82  HIS82       0.1986
    110  NE2       35.5210   69.8620    5.2140 N.ar   82  HIS82      -0.2212
    111  N         35.9420   65.3710   -0.8820 N.3    84  PHE84      -0.1241
    112  CA        35.9960   66.0760   -2.1550 C.3    84  PHE84       0.1605
    113  C         36.6420   65.1890   -3.2130 C.2    84  PHE84       0.2264
    114  O         37.4620   64.3740   -2.8140 O.2    84  PHE84      -0.2867
    115  CB        36.7300   67.3940   -2.0660 C.3    84  PHE84       0.0534
    116  CG        36.2510   68.2790   -0.9480 C.ar   84  PHE84      -0.0203
    117  CD1       34.9080   68.6480   -0.8050 C.ar   84  PHE84      -0.0042
    118  CD2       37.1140   68.7510   -0.0180 C.ar   84  PHE84      -0.0042
    119  CE1       34.5320   69.4800    0.2350 C.ar   84  PHE84      -0.0003
    120  CE2       36.7500   69.5690    1.0060 C.ar   84  PHE84      -0.0003
    121  CZ        35.4550   69.9750    1.1500 C.ar   84  PHE84      -0.0000
    122  N         48.4290   70.5030   13.0320 N.3   154  PHE154     -0.1241
    123  CA        48.0040   71.8810   13.1310 C.3   154  PHE154      0.1605
    124  C         47.2090   71.7960   14.4150 C.2   154  PHE154      0.2264
    125  O         46.6660   70.8140   14.8440 O.2   154  PHE154     -0.2867
    126  CB        47.1240   72.5350   12.0990 C.3   154  PHE154      0.0534
    127  CG        46.0870   71.6610   11.4710 C.ar  154  PHE154     -0.0203
    128  CD1       46.4330   70.8210   10.4250 C.ar  154  PHE154     -0.0042
    129  CD2       44.7970   71.6390   11.9650 C.ar  154  PHE154     -0.0042
    130  CE1       45.5310   70.0150    9.7880 C.ar  154  PHE154     -0.0003
    131  CE2       43.8510   70.8060   11.3390 C.ar  154  PHE154     -0.0003
    132  CZ        44.2180   70.0360   10.2600 C.ar  154  PHE154     -0.0000
    133  N         37.7790   73.4260   16.6310 N.3   160  MET160     -0.1230
    134  CA        37.8590   74.2840   15.4830 C.3   160  MET160      0.1702
    135  C         36.7970   73.9310   14.4650 C.2   160  MET160      0.2592
    136  O         36.6810   74.5840   13.4400 O.2   160  MET160     -0.2718
    137  CB        39.2840   74.1120   14.8320 C.3   160  MET160      0.0401
    138  CG        39.4860   72.8260   14.0970 C.3   160  MET160      0.0596
    139  SD        41.1520   72.2970   13.6950 S.3   160  MET160     -0.1393
    140  CE        41.5800   73.5870   12.4540 C.3   160  MET160      0.0692
    141  N         36.1360   72.7600   14.6100 N.am  161  ILE161     -0.1980
    142  CA        35.0940   72.4070   13.6430 C.3   161  ILE161      0.1595
    143  C         33.7240   72.5780   14.2590 C.2   161  ILE161      0.2287
    144  O         32.7880   72.0650   13.6980 O.2   161  ILE161     -0.2864
    145  CB        35.2140   71.0010   13.0740 C.3   161  ILE161      0.0276
    146  CG1       35.2420   70.0110   14.2550 C.3   161  ILE161      0.0022
    147  CG2       36.4420   70.9560   12.1300 C.3   161  ILE161      0.0022
    148  CD1       35.2920   68.5870   13.6930 C.3   161  ILE161      0.0001
    149  N         31.8740   80.4650   11.2220 N.3   246  SER246     -0.1217
    150  CA        31.4470   79.5730   12.2690 C.3   246  SER246      0.1889
    151  C         32.1520   79.7640   13.6120 C.2   246  SER246      0.2288
    152  O         33.2790   80.2780   13.6180 O.2   246  SER246     -0.2866
    153  CB        31.7300   78.1160   11.8340 C.3   246  SER246      0.2089
    154  OG        30.8280   78.0100   10.7370 O.3   246  SER246     -0.2183
    155  N         31.5310   62.3090   14.2050 N.3   330  SER330     -0.1202
    156  CA        31.7220   63.5430   13.5100 C.3   330  SER330      0.2020
    157  C         33.0940   64.1630   13.8680 C.2   330  SER330      0.2619
    158  O         33.2310   65.3220   13.5990 O.2   330  SER330     -0.2717
    159  CB        30.6220   64.4120   14.1420 C.3   330  SER330      0.2103
    160  OG        31.0310   64.3160   15.5150 O.3   330  SER330     -0.2182
    161  N         33.8950   63.5500   14.7460 N.am  331  ASN331     -0.1960
    162  CA        35.0530   64.1710   15.3510 C.3   331  ASN331      0.1819
    163  C         36.2280   64.3880   14.4150 C.2   331  ASN331      0.2621
    164  O         36.4500   63.5980   13.5170 O.2   331  ASN331     -0.2715
    165  CB        35.6280   63.2780   16.4910 C.3   331  ASN331      0.1195
    166  CG        34.6700   63.3340   17.6920 C.2   331  ASN331      0.2630
    167  OD1       35.1580   63.2300   18.8030 O.2   331  ASN331     -0.2716
    168  ND2       33.3900   63.6700   17.4510 N.am  331  ASN331     -0.0877
    169  N         37.1220   65.3010   14.8160 N.am  332  ASN332     -0.1972
    170  CA        38.4770   65.2090   14.1990 C.3   332  ASN332      0.1688
    171  C         39.1710   63.9300   14.6580 C.2   332  ASN332      0.2292
    172  O         38.8950   63.3630   15.7570 O.2   332  ASN332     -0.2864
    173  CB        39.2070   66.4460   14.7130 C.3   332  ASN332      0.1181
    174  CG        40.5070   66.7390   13.9850 C.2   332  ASN332      0.2629
    175  OD1       40.9830   65.8430   13.2340 O.2   332  ASN332     -0.2716
    176  ND2       40.8800   67.9940   14.1400 N.am  332  ASN332     -0.0877
    177  N         32.1220   63.3440    6.9450 N.3   367  ARG367     -0.1231
    178  CA        31.6770   63.0660    8.3150 C.3   367  ARG367      0.1694
    179  C         31.1510   64.2790    8.9930 C.2   367  ARG367      0.2592
    180  O         31.5800   64.7920   10.0330 O.2   367  ARG367     -0.2718
    181  CB        32.7270   62.2990    9.1390 C.3   367  ARG367      0.0321
    182  CG        33.0610   60.9280    8.5460 C.3   367  ARG367      0.0489
    183  CD        34.1110   60.1250    9.3830 C.3   367  ARG367      0.2205
    184  NE        35.3480   60.8690    9.5970 N.pl3 367  ARG367     -0.0865
    185  CZ        35.7200   61.6200   10.6130 C.cat 367  ARG367      0.5346
    186  NH1       35.0430   61.8810   11.7680 N.pl3 367  ARG367      0.1354
    187  NH2       36.9600   62.1810   10.5070 N.pl3 367  ARG367      0.1354
    188  N         30.0980   64.8450    8.4100 N.am  368  ILE368     -0.1966
    189  CA        29.5080   66.0830    8.9380 C.3   368  ILE368      0.1727
    190  C         28.0660   65.7350    9.3650 C.2   368  ILE368      0.2616
    191  O         27.5010   64.8250    8.7420 O.2   368  ILE368     -0.2715
    192  CB        29.5450   66.9520    7.6550 C.3   368  ILE368      0.0290
    193  CG1       30.9010   67.6710    7.6020 C.3   368  ILE368      0.0022
    194  CG2       28.3380   67.8590    7.4770 C.3   368  ILE368      0.0023
    195  CD1       31.1050   68.3800    6.2830 C.3   368  ILE368      0.0001
    196  N         27.4960   66.3720   10.3240 N.am  369  LEU369     -0.1977
    197  CA        26.1630   66.2530   10.8400 C.3   369  LEU369      0.1596
    198  C         25.1290   66.5120    9.6970 C.2   369  LEU369      0.2287
    199  O         25.2790   67.5390    9.0080 O.2   369  LEU369     -0.2864
    200  CB        25.9000   67.2280   11.9790 C.3   369  LEU369      0.0297
    201  CG        26.6490   67.2090   13.3210 C.3   369  LEU369      0.0022
    202  CD1       25.7360   67.5820   14.5090 C.3   369  LEU369      0.0001
    203  CD2       27.3190   65.9170   13.7270 C.3   369  LEU369      0.0001
    204  N         24.1140   73.4180    0.4300 N.3   428  GLY428     -0.1210
    205  CA        25.4560   73.4240    1.0950 C.3   428  GLY428      0.1956
    206  C         25.9960   71.9930    1.0930 C.2   428  GLY428      0.2611
    207  O         27.1970   71.8310    0.7860 O.2   428  GLY428     -0.2717
    208  N         25.1590   70.9590    1.2980 N.am  429  TYR429     -0.1976
    209  CA        25.6840   69.6120    1.3100 C.3   429  TYR429      0.1639
    210  C         26.1970   69.2850   -0.1050 C.2   429  TYR429      0.2290
    211  O         27.2340   68.6450   -0.3340 O.2   429  TYR429     -0.2864
    212  CB        24.7690   68.5410    1.8290 C.3   429  TYR429      0.0560
    213  CG        24.2000   68.7250    3.2320 C.ar  429  TYR429     -0.0198
    214  CD1       24.9800   69.3150    4.2150 C.ar  429  TYR429     -0.0009
    215  CD2       22.9180   68.2810    3.5870 C.ar  429  TYR429     -0.0009
    216  CE1       24.4940   69.5400    5.4940 C.ar  429  TYR429      0.0417
    217  CE2       22.4470   68.4690    4.8730 C.ar  429  TYR429      0.0417
    218  CZ        23.1940   69.0830    5.8070 C.ar  429  TYR429      0.1957
    219  OH        22.8010   69.3130    7.1170 O.3   429  TYR429     -0.2866
    220  N         29.5300   70.6330   -0.8110 N.3   432  LEU432     -0.1245
    221  CA        30.4540   69.7020   -0.1930 C.3   432  LEU432      0.1561
    222  C         30.5490   68.3790   -0.8670 C.2   432  LEU432      0.2260
    223  O         31.2080   67.4780   -0.3140 O.2   432  LEU432     -0.2867
    224  CB        30.1480   69.5450    1.3130 C.3   432  LEU432      0.0270
    225  CG        30.2590   70.8830    2.0370 C.3   432  LEU432      0.0019
    226  CD1       29.9630   70.7450    3.5440 C.3   432  LEU432      0.0001
    227  CD2       31.6540   71.5160    1.8350 C.3   432  LEU432      0.0001
@<TRIPOS>BOND
     1     9     7   am
     2     7     8    2
     3     7     6    1
     4     1     2    1
     5     5     6    1
     6     5     2    1
     7     2     3    1
     8     3    10   am
     9     3     4    2
    10    10    11    1
    11    19    17   ar
    12    19    20   ar
    13    17    15   ar
    14    20    18   ar
    15   113   114    2
    16   113   112    1
    17    15    14    1
    18    15    16   ar
    19    11    14    1
    20    11    12    1
    21    35    34    1
    22    35    29    1
    23    28    26   ar
    24    34    33    1
    25    27    26   ar
    26    21    22    1
    27    21    12   am
    28    18    16   ar
    29   112   115    1
    30   112   111    1
    31    26    25    1
    32   115   116    1
    33    22    25    1
    34    22    23    1
    35    12    13    2
    36    29    23   am
    37    29    30    1
    38    33    30    1
    39   116   117   ar
    40   116   118   ar
    41   222   223    2
    42   222   221    1
    43   220   221    1
    44   117   119   ar
    45    23    24    2
    46   211   210    2
    47   221   224    1
    48    30    31    1
    49   210   209    1
    50   118   120   ar
    51   119   121   ar
    52   204   205    1
    53    31    32    2
    54   207   206    2
    55   120   121   ar
    56   206   205    1
    57   206   208   am
    58   208   209    1
    59   209   212    1
    60   224   225    1
    61   212   213    1
    62   227   225    1
    63   225   226    1
    64    85    84    1
    65    84    81    1
    66   103   104    2
    67   103   102    1
    68   105   102    1
    69   105   106    1
    70   213   215   ar
    71   213   214   ar
    72    68    69    1
    73   215   217   ar
    74   102   101    1
    75    81    82    1
    76    81    80    1
    77    36    37    1
    78    82    83    2
    79   106   107   ar
    80   106   108   ar
    81    80    70   am
    82    40    37    1
    83    40    41    1
    84   107   109   ar
    85   214   216   ar
    86    37    38    1
    87   108   110   ar
    88    69    70    1
    89    69    72    1
    90    70    71    2
    91   217   218   ar
    92   101    97   am
    93   109   110   ar
    94    86    87    1
    95   216   218   ar
    96    72    73    1
    97    38    39    2
    98    38    42   am
    99   218   219    1
   100    97    98    2
   101    97    96    1
   102   195   193    1
   103    42    43    1
   104    87    88    1
   105    87    90    1
   106    95    96    1
   107    95    88   am
   108   177   178    1
   109    49    51   ar
   110    49    47   ar
   111    73    74   ar
   112    73    75   ar
   113    96    99    1
   114    58    57    1
   115    88    89    2
   116    51    50   ar
   117    63    62    2
   118    67    65    1
   119    74    76   ar
   120    94    92   ar
   121   194   192    1
   122    91    90    1
   123    91    92    1
   124   193   192    1
   125    65    64    1
   126   192   189    1
   127    43    46    1
   128    43    44    1
   129    92    93   ar
   130    99   100    1
   131    57    56    1
   132    57    59    1
   133    75    77   ar
   134    47    46    1
   135    47    48   ar
   136   178   179    1
   137   178   181    1
   138    56    53    1
   139    52    44   am
   140    52    53    1
   141   188   189    1
   142   188   179   am
   143    62    61    1
   144    50    48   ar
   145   182   181    1
   146   182   183    1
   147    76    78   ar
   148   191   190    2
   149    44    45    2
   150    60    61    1
   151   189   190    1
   152   179   180    2
   153   199   198    2
   154    64    61    1
   155    64    66    1
   156    53    54    1
   157    77    78   ar
   158   190   196   am
   159   183   184    1
   160    54    55    1
   161   184   185    2
   162    78    79    1
   163   198   197    1
   164   130   132   ar
   165   130   128   ar
   166   132   131   ar
   167   196   197    1
   168   128   127   ar
   169   187   185    1
   170   185   186    1
   171   154   153    1
   172   197   200    1
   173   149   150    1
   174   131   129   ar
   175   127   129   ar
   176   127   126    1
   177   153   150    1
   178   200   201    1
   179   126   123    1
   180   147   145    1
   181   150   151    1
   182   140   139    1
   183   122   123    1
   184   145   142    1
   185   145   146    1
   186   123   124    1
   187   175   174    2
   188   201   203    1
   189   201   202    1
   190   136   135    2
   191   156   157    1
   192   156   159    1
   193   156   155    1
   194   164   163    2
   195   158   157    2
   196   151   152    2
   197   142   143    1
   198   142   141    1
   199   148   146    1
   200   139   138    1
   201   144   143    2
   202   157   161   am
   203   174   176   am
   204   174   173    1
   205   138   137    1
   206   159   160    1
   207   170   171    1
   208   170   173    1
   209   170   169    1
   210   124   125    2
   211   163   169   am
   212   163   162    1
   213   135   141   am
   214   135   134    1
   215   171   172    2
   216   161   162    1
   217   137   134    1
   218   162   165    1
   219   134   133    1
   220   165   166    1
   221   168   166   am
   222   166   167    2
