@<TRIPOS>MOLECULE
tmp/1qo9A00.pdb
 116 105 0 0 0
SMALL
GASTEIGER

@<TRIPOS>ATOM
      1  N         25.1280   51.1180  -16.8640 N.3    13  ARG13      -0.1245
      2  CA        26.2980   50.2550  -16.8250 C.3    13  ARG13       0.1563
      3  C         27.2590   50.7200  -15.7650 C.2    13  ARG13       0.2260
      4  O         27.5280   51.9060  -15.6350 O.2    13  ARG13      -0.2867
      5  CB        27.0200   50.2160  -18.1790 C.3    13  ARG13       0.0307
      6  CG        27.9460   51.3990  -18.4300 C.3    13  ARG13       0.0489
      7  CD        28.8440   51.1740  -19.6350 C.3    13  ARG13       0.2205
      8  NE        29.7920   52.2710  -19.8230 N.pl3  13  ARG13      -0.0865
      9  CZ        30.7920   52.5590  -18.9920 C.cat  13  ARG13       0.5346
     10  NH1       30.9910   51.8330  -17.8990 N.pl3  13  ARG13       0.1354
     11  NH2       31.5990   53.5760  -19.2560 N.pl3  13  ARG13       0.1354
     12  N         30.9610   49.5400  -13.2950 N.3    15  ARG15      -0.1245
     13  CA        32.1920   48.7880  -13.3870 C.3    15  ARG15       0.1563
     14  C         32.2430   47.7470  -12.2990 C.2    15  ARG15       0.2260
     15  O         31.6930   47.9520  -11.2200 O.2    15  ARG15      -0.2867
     16  CB        33.4050   49.7130  -13.2780 C.3    15  ARG15       0.0307
     17  CG        33.6310   50.3080  -11.9150 C.3    15  ARG15       0.0489
     18  CD        33.5220   51.8160  -11.9560 C.3    15  ARG15       0.2205
     19  NE        34.1730   52.4260  -10.7980 N.pl3  15  ARG15      -0.0865
     20  CZ        33.9390   52.0780   -9.5360 C.cat  15  ARG15       0.5346
     21  NH1       33.0690   51.1210   -9.2600 N.pl3  15  ARG15       0.1354
     22  NH2       34.5790   52.6860   -8.5490 N.pl3  15  ARG15       0.1354
     23  N         34.2620   45.4460   -9.6060 N.3    17  VAL17      -0.1245
     24  CA        35.4010   45.6330   -8.7340 C.3    17  VAL17       0.1561
     25  C         35.4460   44.4890   -7.7520 C.2    17  VAL17       0.2260
     26  O         34.4690   44.2440   -7.0410 O.2    17  VAL17      -0.2867
     27  CB        35.2860   46.9570   -7.9590 C.3    17  VAL17       0.0252
     28  CG1       36.4090   47.0780   -6.9590 C.3    17  VAL17       0.0019
     29  CG2       35.3320   48.1160   -8.9260 C.3    17  VAL17       0.0019
     30  N         36.8540   42.6360   -4.4080 N.3    19  VAL19      -0.1245
     31  CA        37.3620   42.9320   -3.0790 C.3    19  VAL19       0.1561
     32  C         37.0440   41.7250   -2.2240 C.2    19  VAL19       0.2260
     33  O         35.9320   41.2030   -2.2520 O.2    19  VAL19      -0.2867
     34  CB        36.6960   44.1720   -2.4810 C.3    19  VAL19       0.0252
     35  CG1       37.1200   45.4070   -3.2560 C.3    19  VAL19       0.0019
     36  CG2       35.2070   44.0270   -2.5360 C.3    19  VAL19       0.0019
     37  N         27.4890   54.2390  -10.2400 N.3    28  THR28      -0.1218
     38  CA        27.4580   55.5900   -9.6760 C.3    28  THR28       0.1862
     39  C         26.9530   56.6090  -10.6890 C.2    28  THR28       0.2287
     40  O         27.2040   56.4930  -11.8780 O.2    28  THR28      -0.2866
     41  CB        28.8540   56.0540   -9.2160 C.3    28  THR28       0.1770
     42  OG1       29.7920   55.8230  -10.2690 O.3    28  THR28      -0.2211
     43  CG2       29.2990   55.3170   -7.9490 C.3    28  THR28       0.0375
     44  N         29.8060   54.9720  -13.9470 N.3    58  THR58      -0.1203
     45  CA        31.1130   54.6060  -13.4380 C.3    58  THR58       0.1994
     46  C         31.7840   55.8540  -12.9160 C.2    58  THR58       0.2618
     47  O         32.7510   55.7870  -12.1670 O.2    58  THR58      -0.2717
     48  CB        31.9550   53.9840  -14.5360 C.3    58  THR58       0.1784
     49  OG1       32.0640   54.9030  -15.6340 O.3    58  THR58      -0.2211
     50  CG2       31.3030   52.6860  -15.0240 C.3    58  THR58       0.0376
     51  N         31.2570   56.9990  -13.3220 N.am   59  GLY59      -0.1942
     52  CA        31.7990   58.2520  -12.8540 C.3    59  GLY59       0.2014
     53  C         31.0230   58.6450  -11.6100 C.2    59  GLY59       0.2638
     54  O         29.8180   58.3870  -11.5210 O.2    59  GLY59      -0.2714
     55  N         31.7070   59.2480  -10.6420 N.am   60  LEU60      -0.1977
     56  CA        31.0580   59.6890   -9.4160 C.3    60  LEU60       0.1596
     57  C         30.2170   60.9150   -9.7400 C.2    60  LEU60       0.2287
     58  O         30.6760   61.8270  -10.4280 O.2    60  LEU60      -0.2864
     59  CB        32.0980   60.0450   -8.3560 C.3    60  LEU60       0.0297
     60  CG        33.0590   58.9210   -7.9730 C.3    60  LEU60       0.0022
     61  CD1       34.0870   59.4230   -6.9740 C.3    60  LEU60       0.0001
     62  CD2       32.2670   57.7580   -7.3960 C.3    60  LEU60       0.0001
     63  N         35.3580   59.1130   -0.4150 N.3   126  ASP126     -0.1239
     64  CA        35.9140   57.7650   -0.3210 C.3   126  ASP126      0.1674
     65  C         35.5760   57.1300    1.0110 C.2   126  ASP126      0.2266
     66  O         35.5250   55.9060    1.1330 O.2   126  ASP126     -0.2867
     67  CB        37.4330   57.7840   -0.4740 C.3   126  ASP126      0.1410
     68  CG        37.8740   58.4310   -1.7610 C.2   126  ASP126      0.3668
     69  OD1       37.8960   59.6860   -1.8400 O.co2 126  ASP126     -0.2456
     70  OD2       38.1870   57.6750   -2.7000 O.co2 126  ASP126     -0.2456
     71  N         32.7480   54.8890    0.6630 N.3   129  ASN129     -0.1240
     72  CA        32.8560   53.7810   -0.2670 C.3   129  ASN129      0.1653
     73  C         32.2080   52.5750    0.3830 C.2   129  ASN129      0.2266
     74  O         32.5730   52.1850    1.4980 O.2   129  ASN129     -0.2867
     75  CB        34.3150   53.4520   -0.5690 C.3   129  ASN129      0.1155
     76  CG        34.4660   52.1560   -1.3680 C.2   129  ASN129      0.2627
     77  OD1       34.6340   52.1720   -2.5940 O.2   129  ASN129     -0.2716
     78  ND2       34.3850   51.0250   -0.6720 N.am  129  ASN129     -0.0877
     79  N         32.0630   49.5940   -1.2500 N.3   131  ASP131     -0.1225
     80  CA        32.6610   48.4070   -1.8640 C.3   131  ASP131      0.1805
     81  C         32.7630   47.2170   -0.9120 C.2   131  ASP131      0.2597
     82  O         32.1220   46.1790   -1.1170 O.2   131  ASP131     -0.2718
     83  CB        34.0650   48.7260   -2.3860 C.3   131  ASP131      0.1424
     84  CG        34.0520   49.4690   -3.7040 C.2   131  ASP131      0.3668
     85  OD1       32.9680   49.6480   -4.2990 O.co2 131  ASP131     -0.2456
     86  OD2       35.1420   49.8720   -4.1510 O.co2 131  ASP131     -0.2456
     87  N         33.5810   47.3860    0.1280 N.am  132  ILE132     -0.1980
     88  CA        33.8210   46.3500    1.1300 C.3   132  ILE132      0.1595
     89  C         32.5580   45.7980    1.7640 C.2   132  ILE132      0.2287
     90  O         32.4300   44.5920    1.9460 O.2   132  ILE132     -0.2864
     91  CB        34.6970   46.8680    2.2750 C.3   132  ILE132      0.0276
     92  CG1       35.9020   47.6280    1.7150 C.3   132  ILE132      0.0022
     93  CG2       35.1360   45.6980    3.1490 C.3   132  ILE132      0.0022
     94  CD1       35.5580   48.9860    1.1170 C.3   132  ILE132      0.0001
     95  N         40.3520   46.7480    4.7520 N.3   459  ASN459     -0.1240
     96  CA        41.1040   47.0840    3.5610 C.3   459  ASN459      0.1653
     97  C         42.5690   47.1590    3.9620 C.2   459  ASN459      0.2266
     98  O         43.0130   48.1590    4.5110 O.2   459  ASN459     -0.2867
     99  CB        40.6260   48.4320    3.0310 C.3   459  ASN459      0.1155
    100  CG        41.2670   48.7990    1.7210 C.2   459  ASN459      0.2627
    101  OD1       42.0450   48.0260    1.1560 O.2   459  ASN459     -0.2716
    102  ND2       40.9320   49.9830    1.2300 N.am  459  ASN459     -0.0877
    103  N         45.1470   47.7300    2.3520 N.3   461  SER461     -0.1202
    104  CA        45.9040   48.7950    1.7190 C.3   461  SER461      0.2020
    105  C         45.7930   49.9960    2.6290 C.2   461  SER461      0.2618
    106  O         46.2180   51.1010    2.2890 O.2   461  SER461     -0.2717
    107  CB        45.3160   49.1040    0.3500 C.3   461  SER461      0.2103
    108  OG        45.2040   47.9100   -0.4070 O.3   461  SER461     -0.2182
    109  N         45.1950   49.7430    3.7920 N.am  462  LEU462     -0.1979
    110  CA        44.9690   50.7220    4.8600 C.3   462  LEU462      0.1596
    111  C         45.4880   50.0740    6.1440 C.2   462  LEU462      0.2287
    112  O         44.9320   49.0850    6.6200 O.2   462  LEU462     -0.2864
    113  CB        43.4740   51.0180    5.0020 C.3   462  LEU462      0.0297
    114  CG        42.8020   51.7420    3.8390 C.3   462  LEU462      0.0022
    115  CD1       41.3050   51.5960    3.9480 C.3   462  LEU462      0.0001
    116  CD2       43.2000   53.2000    3.8510 C.3   462  LEU462      0.0001
@<TRIPOS>BOND
     1     8     7    1
     2     8     9    2
     3     7     6    1
     4    11     9    1
     5     9    10    1
     6     6     5    1
     7     5     2    1
     8     1     2    1
     9     2     3    1
    10     3     4    2
    11    49    48    1
    12    50    48    1
    13    48    45    1
    14    44    45    1
    15    45    46    1
    16    13    12    1
    17    13    16    1
    18    13    14    1
    19    51    46   am
    20    51    52    1
    21    16    17    1
    22    46    47    2
    23    52    53    1
    24    14    15    2
    25    18    17    1
    26    18    19    1
    27    40    39    2
    28    53    54    2
    29    53    55   am
    30    19    20    2
    31    39    38    1
    32    55    56    1
    33    58    57    2
    34    42    41    1
    35    37    38    1
    36    57    56    1
    37    38    41    1
    38    23    24    1
    39    20    21    1
    40    20    22    1
    41    56    59    1
    42    41    43    1
    43    29    27    1
    44    24    27    1
    45    24    25    1
    46    59    60    1
    47    60    62    1
    48    60    61    1
    49    27    28    1
    50    25    26    2
    51    30    31    1
    52    85    84   ar
    53    86    84   ar
    54    84    83    1
    55    35    34    1
    56    31    34    1
    57    31    32    1
    58    70    68   ar
    59    77    76    2
    60    36    34    1
    61    83    80    1
    62    33    32    2
    63    80    79    1
    64    80    81    1
    65    69    68   ar
    66    68    67    1
    67    76    78   am
    68    76    75    1
    69    82    81    2
    70    81    87   am
    71    75    72    1
    72    67    64    1
    73    63    64    1
    74   108   107    1
    75    64    65    1
    76    72    73    1
    77    72    71    1
    78    87    88    1
    79   107   104    1
    80    73    74    2
    81    65    66    2
    82    94    92    1
    83    88    89    1
    84    88    91    1
    85   101   100    2
    86   102   100   am
    87    92    91    1
    88   104   103    1
    89   104   105    1
    90   100    99    1
    91    89    90    2
    92    91    93    1
    93   106   105    2
    94   105   109   am
    95    99    96    1
    96    96    97    1
    97    96    95    1
    98   109   110    1
    99   114   116    1
   100   114   115    1
   101   114   113    1
   102    97    98    2
   103   110   113    1
   104   110   111    1
   105   111   112    2
