@<TRIPOS>MOLECULE
tmp/1qonA00.pdb
 100 91 0 0 0
SMALL
GASTEIGER

@<TRIPOS>ATOM
      1  N         30.5100   48.9810  -13.1100 N.3    17  ARG17      -0.1245
      2  CA        31.8460   48.4360  -13.2770 C.3    17  ARG17       0.1563
      3  C         32.0150   47.3800  -12.1970 C.2    17  ARG17       0.2260
      4  O         31.5460   47.5620  -11.0740 O.2    17  ARG17      -0.2867
      5  CB        32.8910   49.5390  -13.1270 C.3    17  ARG17       0.0307
      6  CG        32.7220   50.3580  -11.8840 C.3    17  ARG17       0.0489
      7  CD        33.5850   51.5930  -11.9340 C.3    17  ARG17       0.2205
      8  NE        33.2490   52.5250  -10.8600 N.pl3  17  ARG17      -0.0865
      9  CZ        33.4920   52.3090   -9.5710 C.cat  17  ARG17       0.5346
     10  NH1       34.0810   51.1870   -9.1770 N.pl3  17  ARG17       0.1354
     11  NH2       33.1440   53.2210   -8.6730 N.pl3  17  ARG17       0.1354
     12  N         36.9320   42.7640   -4.1420 N.3    21  VAL21      -0.1245
     13  CA        37.4520   43.1590   -2.8430 C.3    21  VAL21       0.1561
     14  C         37.0980   42.0500   -1.8720 C.2    21  VAL21       0.2260
     15  O         36.0280   41.4480   -1.9780 O.2    21  VAL21      -0.2867
     16  CB        36.8120   44.4780   -2.3610 C.3    21  VAL21       0.0252
     17  CG1       37.2800   45.6300   -3.2390 C.3    21  VAL21       0.0019
     18  CG2       35.2900   44.3620   -2.3920 C.3    21  VAL21       0.0019
     19  N         29.7000   54.7310  -13.7730 N.3    60  THR60      -0.1203
     20  CA        31.0030   54.2940  -13.3060 C.3    60  THR60       0.1994
     21  C         31.7020   55.4750  -12.6550 C.2    60  THR60       0.2618
     22  O         32.5650   55.2980  -11.7970 O.2    60  THR60      -0.2717
     23  CB        31.8700   53.7590  -14.4720 C.3    60  THR60       0.1784
     24  OG1       32.2530   54.8410  -15.3320 O.3    60  THR60      -0.2211
     25  CG2       31.0880   52.7200  -15.2810 C.3    60  THR60       0.0376
     26  N         31.3090   56.6790  -13.0590 N.am   61  GLY61      -0.1942
     27  CA        31.9000   57.8780  -12.5020 C.3    61  GLY61       0.2014
     28  C         31.1320   58.4400  -11.3190 C.2    61  GLY61       0.2638
     29  O         29.9130   58.2980  -11.2340 O.2    61  GLY61      -0.2714
     30  N         31.8550   59.0780  -10.4000 N.am   62  LEU62      -0.1977
     31  CA        31.2510   59.6950   -9.2210 C.3    62  LEU62       0.1596
     32  C         30.4840   60.9400   -9.6480 C.2    62  LEU62       0.2287
     33  O         30.9580   61.7100  -10.4770 O.2    62  LEU62      -0.2864
     34  CB        32.3310   60.0910   -8.2140 C.3    62  LEU62       0.0297
     35  CG        33.1960   58.9610   -7.6450 C.3    62  LEU62       0.0022
     36  CD1       34.2080   59.5440   -6.6750 C.3    62  LEU62       0.0001
     37  CD2       32.3160   57.9300   -6.9470 C.3    62  LEU62       0.0001
     38  N         35.4480   59.0610   -0.0160 N.3   127  ASP127     -0.1239
     39  CA        36.0120   57.7170    0.0270 C.3   127  ASP127      0.1674
     40  C         35.6120   56.9880    1.2880 C.2   127  ASP127      0.2266
     41  O         35.4670   55.7640    1.2960 O.2   127  ASP127     -0.2867
     42  CB        37.5360   57.7680   -0.0200 C.3   127  ASP127      0.1410
     43  CG        38.0530   58.2420   -1.3430 C.2   127  ASP127      0.3668
     44  OD1       37.8390   59.4260   -1.6860 O.co2 127  ASP127     -0.2456
     45  OD2       38.6740   57.4230   -2.0450 O.co2 127  ASP127     -0.2456
     46  N         32.7470   54.8580    0.9220 N.3   130  ASN130     -0.1240
     47  CA        32.8660   53.8190   -0.0790 C.3   130  ASN130      0.1653
     48  C         32.2950   52.5360    0.5020 C.2   130  ASN130      0.2266
     49  O         32.7940   52.0280    1.5050 O.2   130  ASN130     -0.2867
     50  CB        34.3290   53.6230   -0.4440 C.3   130  ASN130      0.1155
     51  CG        34.5690   52.3320   -1.1910 C.2   130  ASN130      0.2627
     52  OD1       33.9940   52.1010   -2.2590 O.2   130  ASN130     -0.2716
     53  ND2       35.4200   51.4700   -0.6280 N.am  130  ASN130     -0.0877
     54  N         32.2240   49.5240   -0.9930 N.3   132  ASP132     -0.1225
     55  CA        32.7120   48.3070   -1.6510 C.3   132  ASP132      0.1805
     56  C         32.7960   47.1760   -0.6350 C.2   132  ASP132      0.2597
     57  O         32.0110   46.2200   -0.6820 O.2   132  ASP132     -0.2718
     58  CB        34.1000   48.5100   -2.2650 C.3   132  ASP132      0.1424
     59  CG        34.0630   49.2410   -3.6030 C.2   132  ASP132      0.3668
     60  OD1       32.9560   49.4830   -4.1430 O.co2 132  ASP132     -0.2456
     61  OD2       35.1560   49.5730   -4.1160 O.co2 132  ASP132     -0.2456
     62  N         33.7470   47.2970    0.2870 N.am  133  ILE133     -0.1980
     63  CA        33.9440   46.2830    1.3200 C.3   133  ILE133      0.1595
     64  C         32.6490   45.8090    1.9750 C.2   133  ILE133      0.2287
     65  O         32.4240   44.6040    2.0870 O.2   133  ILE133     -0.2864
     66  CB        34.9020   46.7870    2.4220 C.3   133  ILE133      0.0276
     67  CG1       36.3090   46.9100    1.8420 C.3   133  ILE133      0.0022
     68  CG2       34.8760   45.8440    3.6300 C.3   133  ILE133      0.0022
     69  CD1       37.2980   47.5720    2.7550 C.3   133  ILE133      0.0001
     70  N         36.2340   49.8040    6.6350 N.3   457  GLN457     -0.1245
     71  CA        37.4780   50.2640    6.0500 C.3   457  GLN457      0.1566
     72  C         38.6700   49.5440    6.6720 C.2   457  GLN457      0.2260
     73  O         39.6590   49.2830    5.9950 O.2   457  GLN457     -0.2867
     74  CB        37.6240   51.7750    6.2150 C.3   457  GLN457      0.0367
     75  CG        36.4200   52.5460    5.6970 C.3   457  GLN457      0.0905
     76  CD        36.0550   52.1840    4.2620 C.2   457  GLN457      0.2608
     77  OE1       36.8450   52.3910    3.3420 O.2   457  GLN457     -0.2717
     78  NE2       34.8530   51.6420    4.0680 N.am  457  GLN457     -0.0878
     79  N         40.2750   46.8450    4.8530 N.3   460  ASN460     -0.1240
     80  CA        41.0150   47.2150    3.6500 C.3   460  ASN460      0.1653
     81  C         42.4980   47.1510    3.9830 C.2   460  ASN460      0.2266
     82  O         43.0210   48.0340    4.6570 O.2   460  ASN460     -0.2867
     83  CB        40.6370   48.6410    3.2440 C.3   460  ASN460      0.1155
     84  CG        41.3310   49.0950    1.9860 C.2   460  ASN460      0.2627
     85  OD1       42.3200   48.4930    1.5750 O.2   460  ASN460     -0.2716
     86  ND2       40.8220   50.1670    1.3810 N.am  460  ASN460     -0.0877
     87  N         45.1150   47.7460    2.2110 N.3   462  SER462     -0.1202
     88  CA        45.9700   48.7660    1.6370 C.3   462  SER462      0.2020
     89  C         46.0860   49.9160    2.6200 C.2   462  SER462      0.2618
     90  O         46.9770   50.7540    2.5010 O.2   462  SER462     -0.2717
     91  CB        45.3820   49.2530    0.3160 C.3   462  SER462      0.2103
     92  OG        45.0770   48.1540   -0.5310 O.3   462  SER462     -0.2182
     93  N         45.1730   49.9400    3.5890 N.am  463  LEU463     -0.1979
     94  CA        45.1300   50.9730    4.6290 C.3   463  LEU463      0.1596
     95  C         45.7790   50.4810    5.9220 C.2   463  LEU463      0.2287
     96  O         45.6290   49.3170    6.3030 O.2   463  LEU463     -0.2864
     97  CB        43.6830   51.3770    4.9100 C.3   463  LEU463      0.0297
     98  CG        43.0080   52.2730    3.8770 C.3   463  LEU463      0.0022
     99  CD1       41.5090   52.3250    4.1230 C.3   463  LEU463      0.0001
    100  CD2       43.6230   53.6580    3.9570 C.3   463  LEU463      0.0001
@<TRIPOS>BOND
     1    24    23    1
     2    25    23    1
     3    23    20    1
     4    19    20    1
     5    20    21    1
     6     2     5    1
     7     2     1    1
     8     2     3    1
     9     5     6    1
    10    26    21   am
    11    26    27    1
    12    21    22    2
    13    27    28    1
    14     3     4    2
    15     7     6    1
    16     7     8    1
    17    28    29    2
    18    28    30   am
    19     8     9    2
    20    33    32    2
    21    30    31    1
    22    32    31    1
    23     9    10    1
    24     9    11    1
    25    31    34    1
    26    34    35    1
    27    35    37    1
    28    35    36    1
    29    60    59   ar
    30    12    13    1
    31    61    59   ar
    32    59    58    1
    33    17    16    1
    34    13    16    1
    35    13    14    1
    36    18    16    1
    37    58    55    1
    38    52    51    2
    39    45    43   ar
    40    15    14    2
    41    44    43   ar
    42    55    54    1
    43    55    56    1
    44    43    42    1
    45    51    53   am
    46    51    50    1
    47    57    56    2
    48    56    62   am
    49    92    91    1
    50    50    47    1
    51    47    48    1
    52    47    46    1
    53    42    39    1
    54    38    39    1
    55    39    40    1
    56    62    63    1
    57    91    88    1
    58    48    49    2
    59    40    41    2
    60    63    64    1
    61    63    66    1
    62    86    84   am
    63    85    84    2
    64    88    87    1
    65    88    89    1
    66    67    66    1
    67    67    69    1
    68    64    65    2
    69    84    83    1
    70    66    68    1
    71    90    89    2
    72    89    93   am
    73    83    80    1
    74    77    76    2
    75    93    94    1
    76    80    81    1
    77    80    79    1
    78    98   100    1
    79    98    99    1
    80    98    97    1
    81    81    82    2
    82    78    76   am
    83    76    75    1
    84    94    97    1
    85    94    95    1
    86    75    74    1
    87    95    96    2
    88    73    72    2
    89    71    74    1
    90    71    70    1
    91    71    72    1
