@<TRIPOS>MOLECULE
tmp/1qonA01.pdb
 221 220 0 0 0
SMALL
GASTEIGER

@<TRIPOS>ATOM
      1  N         35.6480   73.3790    4.0930 N.3    71  TYR71      -0.1241
      2  CA        36.2570   73.8480    5.3280 C.3    71  TYR71       0.1605
      3  C         37.7690   73.7760    5.1520 C.2    71  TYR71       0.2264
      4  O         38.3380   72.6910    5.0180 O.2    71  TYR71      -0.2867
      5  CB        35.8170   72.9850    6.5190 C.3    71  TYR71       0.0534
      6  CG        34.3910   73.2250    6.9750 C.ar   71  TYR71      -0.0201
      7  CD1       33.3210   72.5740    6.3670 C.ar   71  TYR71      -0.0009
      8  CD2       34.1120   74.1150    8.0150 C.ar   71  TYR71      -0.0009
      9  CE1       32.0070   72.8030    6.7840 C.ar   71  TYR71       0.0417
     10  CE2       32.8030   74.3500    8.4400 C.ar   71  TYR71       0.0417
     11  CZ        31.7590   73.6890    7.8200 C.ar   71  TYR71       0.1957
     12  OH        30.4670   73.9110    8.2360 O.3    71  TYR71      -0.2866
     13  N         41.0760   67.2100    7.8390 N.3    80  GLU80      -0.1245
     14  CA        39.9370   68.0390    7.4890 C.3    80  GLU80       0.1567
     15  C         39.4770   67.8130    6.0550 C.2    80  GLU80       0.2260
     16  O         38.2770   67.8010    5.7700 O.2    80  GLU80      -0.2867
     17  CB        40.2890   69.5100    7.6560 C.3    80  GLU80       0.0388
     18  CG        39.1900   70.4410    7.2010 C.3    80  GLU80       0.1160
     19  CD        39.6310   71.8780    7.1940 C.2    80  GLU80       0.3649
     20  OE1       40.5850   72.1910    6.4560 O.co2  80  GLU80      -0.2457
     21  OE2       39.0290   72.6950    7.9200 O.co2  80  GLU80      -0.2457
     22  N         36.8950   65.1500    4.3710 N.3    83  TRP83      -0.1227
     23  CA        35.4690   65.4210    4.5170 C.3    83  TRP83       0.1737
     24  C         34.9070   66.4510    3.5500 C.2    83  TRP83       0.2595
     25  O         33.6940   66.6400    3.4790 O.2    83  TRP83      -0.2718
     26  CB        35.1640   65.8580    5.9510 C.3    83  TRP83       0.0564
     27  CG        35.5730   64.8460    6.9540 C.ar   83  TRP83       0.0003
     28  CD1       36.6880   64.8690    7.7390 C.ar   83  TRP83       0.0946
     29  CD2       34.9010   63.6210    7.2450 C.ar   83  TRP83       0.0152
     30  NE1       36.7530   63.7300    8.5080 N.ar   83  TRP83      -0.2442
     31  CE2       35.6670   62.9460    8.2230 C.ar   83  TRP83       0.0810
     32  CE3       33.7240   63.0230    6.7740 C.ar   83  TRP83       0.0012
     33  CZ2       35.2930   61.7030    8.7400 C.ar   83  TRP83       0.0191
     34  CZ3       33.3510   61.7830    7.2870 C.ar   83  TRP83       0.0001
     35  CH2       34.1350   61.1380    8.2620 C.ar   83  TRP83       0.0015
     36  N         35.7850   67.1180    2.8130 N.am   84  ASN84      -0.1974
     37  CA        35.3600   68.1240    1.8490 C.3    84  ASN84       0.1688
     38  C         34.9540   67.4790    0.5180 C.2    84  ASN84       0.2292
     39  O         35.2730   66.3160    0.2590 O.2    84  ASN84      -0.2864
     40  CB        36.4840   69.1440    1.6350 C.3    84  ASN84       0.1181
     41  CG        36.5520   70.1860    2.7430 C.2    84  ASN84       0.2629
     42  OD1       35.6050   70.9370    2.9590 O.2    84  ASN84      -0.2716
     43  ND2       37.6770   70.2380    3.4450 N.am   84  ASN84      -0.0877
     44  N         26.1510   62.7590    6.5750 N.3   116  GLY116     -0.1210
     45  CA        25.9200   63.8790    7.4590 C.3   116  GLY116      0.1956
     46  C         26.7380   65.0790    7.0190 C.2   116  GLY116      0.2612
     47  O         27.4770   65.0380    6.0350 O.2   116  GLY116     -0.2717
     48  N         26.5980   66.1600    7.7690 N.am  117  GLY117     -0.1942
     49  CA        27.3100   67.3800    7.4570 C.3   117  GLY117      0.2014
     50  C         26.4750   68.5520    7.9090 C.2   117  GLY117      0.2639
     51  O         26.5270   69.6270    7.3150 O.2   117  GLY117     -0.2714
     52  N         25.6870   68.3180    8.9550 N.am  118  GLY118     -0.1954
     53  CA        24.8400   69.3510    9.5250 C.3   118  GLY118      0.1869
     54  C         23.8720   70.0110    8.5700 C.2   118  GLY118      0.2309
     55  O         23.5990   71.2050    8.6950 O.2   118  GLY118     -0.2863
     56  N         26.4430   70.4770    4.7570 N.3   121  THR121     -0.1218
     57  CA        27.6230   69.8800    4.1130 C.3   121  THR121      0.1862
     58  C         27.3750   68.3850    3.9310 C.2   121  THR121      0.2287
     59  O         26.3930   67.8230    4.4380 O.2   121  THR121     -0.2866
     60  CB        28.8620   70.0940    4.9830 C.3   121  THR121      0.1770
     61  OG1       29.0990   71.4830    5.1580 O.3   121  THR121     -0.2211
     62  CG2       30.1290   69.4870    4.3780 C.3   121  THR121      0.0375
     63  N         32.8850   56.8780    2.6570 N.3   129  TYR129     -0.1241
     64  CA        31.5580   56.2780    2.4920 C.3   129  TYR129      0.1605
     65  C         31.5640   55.1800    1.4310 C.2   129  TYR129      0.2264
     66  O         30.5190   54.6330    1.0770 O.2   129  TYR129     -0.2867
     67  CB        30.5200   57.3420    2.1200 C.3   129  TYR129      0.0534
     68  CG        30.4310   58.4620    3.1190 C.ar  129  TYR129     -0.0201
     69  CD1       30.9050   58.3000    4.4290 C.ar  129  TYR129     -0.0009
     70  CD2       29.8760   59.6860    2.7720 C.ar  129  TYR129     -0.0009
     71  CE1       30.8320   59.3320    5.3640 C.ar  129  TYR129      0.0417
     72  CE2       29.7950   60.7240    3.6970 C.ar  129  TYR129      0.0417
     73  CZ        30.2770   60.5390    4.9880 C.ar  129  TYR129      0.1957
     74  OH        30.2170   61.5710    5.8950 O.3   129  TYR129     -0.2866
     75  N         24.9490   58.9850    9.6800 N.3   204  GLU204     -0.1231
     76  CA        25.6570   59.5220   10.8370 C.3   204  GLU204      0.1699
     77  C         25.4320   61.0440   10.8300 C.2   204  GLU204      0.2592
     78  O         25.3270   61.6290    9.7770 O.2   204  GLU204     -0.2718
     79  CB        27.1270   59.1640   10.7020 C.3   204  GLU204      0.0402
     80  CG        27.9560   59.6500   11.8350 C.3   204  GLU204      0.1161
     81  CD        28.3610   61.1180   11.7130 C.2   204  GLU204      0.3649
     82  OE1       28.4490   61.6680   10.5900 O.co2 204  GLU204     -0.2457
     83  OE2       28.6270   61.7250   12.7600 O.co2 204  GLU204     -0.2457
     84  N         25.3570   61.6750   11.9990 N.am  205  SER205     -0.1952
     85  CA        25.0770   63.1200   12.1420 C.3   205  SER205      0.1924
     86  C         23.7070   63.4700   11.5790 C.2   205  SER205      0.2314
     87  O         22.7030   62.8290   11.8660 O.2   205  SER205     -0.2863
     88  CB        26.0990   63.9800   11.4050 C.3   205  SER205      0.2116
     89  OG        26.9790   64.5650   12.3510 O.3   205  SER205     -0.2180
     90  N         25.6290   81.1760    5.0900 N.3   288  TRP288     -0.1241
     91  CA        26.3990   81.0280    6.3070 C.3   288  TRP288      0.1605
     92  C         26.3570   82.1900    7.2780 C.2   288  TRP288      0.2264
     93  O         26.8140   82.0680    8.4110 O.2   288  TRP288     -0.2867
     94  CB        27.8370   80.6720    5.9730 C.3   288  TRP288      0.0550
     95  CG        27.9900   79.2110    5.7080 C.ar  288  TRP288      0.0003
     96  CD1       28.2150   78.6130    4.5040 C.ar  288  TRP288      0.0946
     97  CD2       27.8880   78.1540    6.6720 C.ar  288  TRP288      0.0152
     98  NE1       28.2610   77.2450    4.6550 N.ar  288  TRP288     -0.2442
     99  CE2       28.0630   76.9360    5.9750 C.ar  288  TRP288      0.0810
    100  CE3       27.6670   78.1170    8.0560 C.ar  288  TRP288      0.0012
    101  CZ2       28.0250   75.6930    6.6180 C.ar  288  TRP288      0.0191
    102  CZ3       27.6290   76.8860    8.6930 C.ar  288  TRP288      0.0001
    103  CH2       27.8070   75.6890    7.9730 C.ar  288  TRP288      0.0015
    104  N         24.6130   81.6920   10.6460 N.3   291  TYR291     -0.1241
    105  CA        25.2490   80.7840   11.5950 C.3   291  TYR291      0.1605
    106  C         25.7000   81.5930   12.8150 C.2   291  TYR291      0.2264
    107  O         26.7930   82.1690   12.8120 O.2   291  TYR291     -0.2867
    108  CB        26.4540   80.1180   10.9330 C.3   291  TYR291      0.0534
    109  CG        27.1880   79.1300   11.8080 C.ar  291  TYR291     -0.0201
    110  CD1       26.6270   77.8940   12.1240 C.ar  291  TYR291     -0.0009
    111  CD2       28.4580   79.4240   12.3070 C.ar  291  TYR291     -0.0009
    112  CE1       27.3160   76.9710   12.9140 C.ar  291  TYR291      0.0417
    113  CE2       29.1560   78.5100   13.0980 C.ar  291  TYR291      0.0417
    114  CZ        28.5810   77.2860   13.3950 C.ar  291  TYR291      0.1957
    115  OH        29.2780   76.3750   14.1530 O.3   291  TYR291     -0.2866
    116  N         23.1790   75.3830   12.8770 N.3   297  PHE297     -0.1241
    117  CA        23.1420   75.6320   11.4420 C.3   297  PHE297      0.1605
    118  C         21.8680   76.3080   10.9640 C.2   297  PHE297      0.2264
    119  O         20.7940   76.0870   11.5220 O.2   297  PHE297     -0.2867
    120  CB        23.3240   74.3130   10.7080 C.3   297  PHE297      0.0534
    121  CG        24.4200   73.4710   11.2690 C.ar  297  PHE297     -0.0203
    122  CD1       25.7420   73.9080   11.2110 C.ar  297  PHE297     -0.0042
    123  CD2       24.1330   72.2640   11.8980 C.ar  297  PHE297     -0.0042
    124  CE1       26.7660   73.1560   11.7730 C.ar  297  PHE297     -0.0003
    125  CE2       25.1520   71.4990   12.4670 C.ar  297  PHE297     -0.0003
    126  CZ        26.4750   71.9490   12.4030 C.ar  297  PHE297     -0.0000
    127  N         35.9650   68.1020   18.0140 N.3   337  TYR337     -0.1227
    128  CA        36.2370   68.9400   16.8530 C.3   337  TYR337      0.1736
    129  C         35.2600   70.1030   16.6400 C.2   337  TYR337      0.2595
    130  O         35.6320   71.1220   16.0480 O.2   337  TYR337     -0.2718
    131  CB        36.4170   68.0870   15.5770 C.3   337  TYR337      0.0548
    132  CG        35.1890   67.7600   14.7540 C.ar  337  TYR337     -0.0200
    133  CD1       34.4970   68.7550   14.0480 C.ar  337  TYR337     -0.0009
    134  CD2       34.7610   66.4420   14.6230 C.ar  337  TYR337     -0.0009
    135  CE1       33.4140   68.4380   13.2310 C.ar  337  TYR337      0.0417
    136  CE2       33.6830   66.1130   13.8090 C.ar  337  TYR337      0.0417
    137  CZ        33.0160   67.1110   13.1170 C.ar  337  TYR337      0.1957
    138  OH        31.9660   66.7570   12.3030 O.3   337  TYR337     -0.2866
    139  N         34.0300   69.9790   17.1310 N.am  338  PHE338     -0.1976
    140  CA        33.0800   71.0770   16.9780 C.3   338  PHE338      0.1639
    141  C         33.5280   72.2260   17.8740 C.2   338  PHE338      0.2290
    142  O         33.2350   73.3970   17.6160 O.2   338  PHE338     -0.2864
    143  CB        31.6670   70.6420   17.3700 C.3   338  PHE338      0.0560
    144  CG        30.9910   69.7660   16.3520 C.ar  338  PHE338     -0.0200
    145  CD1       30.6000   70.2820   15.1180 C.ar  338  PHE338     -0.0042
    146  CD2       30.7240   68.4300   16.6310 C.ar  338  PHE338     -0.0042
    147  CE1       29.9530   69.4800   14.1800 C.ar  338  PHE338     -0.0003
    148  CE2       30.0790   67.6250   15.6990 C.ar  338  PHE338     -0.0003
    149  CZ        29.6910   68.1520   14.4740 C.ar  338  PHE338     -0.0000
    150  N         36.8280   73.7850   16.1830 N.3   341  TYR341     -0.1227
    151  CA        36.4540   74.6750   15.0850 C.3   341  TYR341      0.1736
    152  C         35.8030   75.9840   15.4730 C.2   341  TYR341      0.2595
    153  O         36.1810   77.0280   14.9580 O.2   341  TYR341     -0.2718
    154  CB        35.5490   73.9620   14.0680 C.3   341  TYR341      0.0548
    155  CG        36.3110   73.1560   13.0400 C.ar  341  TYR341     -0.0200
    156  CD1       36.8960   71.9370   13.3800 C.ar  341  TYR341     -0.0009
    157  CD2       36.4810   73.6260   11.7400 C.ar  341  TYR341     -0.0009
    158  CE1       37.6370   71.2090   12.4560 C.ar  341  TYR341      0.0417
    159  CE2       37.2190   72.9060   10.8080 C.ar  341  TYR341      0.0417
    160  CZ        37.7960   71.6950   11.1730 C.ar  341  TYR341      0.1957
    161  OH        38.5300   70.9620   10.2620 O.3   341  TYR341     -0.2866
    162  N         34.8300   75.9590   16.3690 N.am  342  ASP342     -0.1974
    163  CA        34.1800   77.2100   16.7210 C.3   342  ASP342      0.1709
    164  C         34.9940   78.1120   17.6380 C.2   342  ASP342      0.2293
    165  O         34.6120   79.2550   17.9010 O.2   342  ASP342     -0.2864
    166  CB        32.8060   76.9310   17.3150 C.3   342  ASP342      0.1436
    167  CG        31.8320   76.4080   16.2790 C.2   342  ASP342      0.3671
    168  OD1       32.0420   75.2810   15.7810 O.co2 342  ASP342     -0.2456
    169  OD2       30.8670   77.1330   15.9540 O.co2 342  ASP342     -0.2456
    170  N         44.6460   63.5350   14.3930 N.3   439  TRP439     -0.1241
    171  CA        43.9790   64.6260   15.0990 C.3   439  TRP439      0.1605
    172  C         44.6180   64.7420   16.4760 C.2   439  TRP439      0.2264
    173  O         45.4300   63.9040   16.8470 O.2   439  TRP439     -0.2867
    174  CB        42.4680   64.3660   15.2310 C.3   439  TRP439      0.0550
    175  CG        41.6700   64.8020   14.0300 C.ar  439  TRP439      0.0003
    176  CD1       41.0080   64.0020   13.1450 C.ar  439  TRP439      0.0946
    177  CD2       41.5030   66.1430   13.5630 C.ar  439  TRP439      0.0152
    178  NE1       40.4450   64.7640   12.1480 N.ar  439  TRP439     -0.2442
    179  CE2       40.7340   66.0840   12.3810 C.ar  439  TRP439      0.0810
    180  CE3       41.9310   67.3940   14.0230 C.ar  439  TRP439      0.0012
    181  CZ2       40.3850   67.2220   11.6570 C.ar  439  TRP439      0.0191
    182  CZ3       41.5810   68.5260   13.3030 C.ar  439  TRP439      0.0001
    183  CH2       40.8160   68.4310   12.1310 C.ar  439  TRP439      0.0015
    184  N         36.7480   61.2540   18.1150 N.3   446  LEU446     -0.1231
    185  CA        35.7720   62.2150   17.6140 C.3   446  LEU446      0.1693
    186  C         34.5980   61.7950   16.7580 C.2   446  LEU446      0.2592
    187  O         34.5250   60.6870   16.2340 O.2   446  LEU446     -0.2718
    188  CB        36.4610   63.3830   16.9040 C.3   446  LEU446      0.0284
    189  CG        37.4400   63.1360   15.7730 C.3   446  LEU446      0.0019
    190  CD1       37.5370   64.3870   14.9190 C.3   446  LEU446      0.0001
    191  CD2       38.7940   62.7760   16.3570 C.3   446  LEU446      0.0001
    192  N         33.6700   62.7410   16.6620 N.am  447  HIS447     -0.1962
    193  CA        32.4450   62.6400   15.8940 C.3   447  HIS447      0.1787
    194  C         32.8190   62.1540   14.4980 C.2   447  HIS447      0.2621
    195  O         33.5910   62.8090   13.8030 O.2   447  HIS447     -0.2715
    196  CB        31.8390   64.0440   15.8410 C.3   447  HIS447      0.0785
    197  CG        30.5460   64.1470   15.0920 C.ar  447  HIS447      0.0821
    198  ND1       29.3330   63.7920   15.6450 N.ar  447  HIS447     -0.2267
    199  CD2       30.2670   64.6650   13.8740 C.ar  447  HIS447      0.1154
    200  CE1       28.3630   64.0980   14.8040 C.ar  447  HIS447      0.1986
    201  NE2       28.9040   64.6310   13.7210 N.ar  447  HIS447     -0.2212
    202  N         32.3010   61.0000   14.0920 N.am  448  GLY448     -0.1940
    203  CA        32.6080   60.5020   12.7620 C.3   448  GLY448      0.2014
    204  C         33.5760   59.3320   12.6500 C.2   448  GLY448      0.2638
    205  O         33.4960   58.5560   11.6970 O.2   448  GLY448     -0.2714
    206  N         34.4900   59.1920   13.6070 N.am  449  ASP449     -0.1971
    207  CA        35.4610   58.1050   13.5520 C.3   449  ASP449      0.1709
    208  C         34.8400   56.7270   13.5220 C.2   449  ASP449      0.2293
    209  O         35.5180   55.7570   13.2100 O.2   449  ASP449     -0.2864
    210  CB        36.4350   58.1700   14.7260 C.3   449  ASP449      0.1436
    211  CG        37.3760   59.3500   14.6390 C.2   449  ASP449      0.3671
    212  OD1       37.6900   59.7690   13.5000 O.co2 449  ASP449     -0.2456
    213  OD2       37.8150   59.8430   15.7050 O.co2 449  ASP449     -0.2456
    214  N         32.2810   55.8600   11.5390 N.3   451  ILE451     -0.1245
    215  CA        31.9230   55.5850   10.1480 C.3   451  ILE451      0.1561
    216  C         32.8630   54.5850    9.4750 C.2   451  ILE451      0.2260
    217  O         32.4090   53.5550    8.9760 O.2   451  ILE451     -0.2867
    218  CB        31.8560   56.8950    9.3070 C.3   451  ILE451      0.0252
    219  CG1       30.8090   57.8430    9.8940 C.3   451  ILE451      0.0019
    220  CG2       31.4470   56.5890    7.8770 C.3   451  ILE451      0.0019
    221  CD1       30.8030   59.2060    9.2410 C.3   451  ILE451      0.0001
@<TRIPOS>BOND
     1    39    38    2
     2    38    37    1
     3    66    65    2
     4    65    64    1
     5    40    37    1
     6    40    41    1
     7    37    36    1
     8    67    64    1
     9    67    68    1
    10    64    63    1
    11    41    42    2
    12    41    43   am
    13    70    68   ar
    14    70    72   ar
    15    36    24   am
    16    68    69   ar
    17    25    24    2
    18    24    23    1
    19    72    73   ar
    20    58    57    1
    21    58    59    2
    22     1     2    1
    23    57    56    1
    24    57    60    1
    25    22    23    1
    26    62    60    1
    27    69    71   ar
    28    96    98   ar
    29    96    95   ar
    30    23    26    1
    31    98    99   ar
    32    60    61    1
    33    73    71   ar
    34    73    74    1
    35     4     3    2
    36    90    91    1
    37     3     2    1
    38     2     5    1
    39    95    94    1
    40    95    97   ar
    41    16    15    2
    42    26    27    1
    43    94    91    1
    44    99   101   ar
    45    99    97   ar
    46    47    46    2
    47    15    14    1
    48    91    92    1
    49     7     9   ar
    50     7     6   ar
    51    20    19   ar
    52     5     6    1
    53    44    45    1
    54   101   103   ar
    55    97   100   ar
    56    32    29   ar
    57    32    34   ar
    58     9    11   ar
    59    27    29   ar
    60    27    28   ar
    61     6     8   ar
    62    46    45    1
    63    46    48   am
    64    19    18    1
    65    19    21   ar
    66    18    17    1
    67    29    31   ar
    68    92    93    2
    69    34    35   ar
    70    51    50    2
    71    49    48    1
    72    49    50    1
    73    14    17    1
    74    14    13    1
    75    28    30   ar
    76    11    12    1
    77    11    10   ar
    78   220   218    1
    79    50    52   am
    80   103   102   ar
    81     8    10   ar
    82   100   102   ar
    83    31    30   ar
    84    31    33   ar
    85    35    33   ar
    86    54    55    2
    87    54    53    1
    88    52    53    1
    89   217   216    2
    90   221   219    1
    91   218   219    1
    92   218   215    1
    93   216   215    1
    94    75    76    1
    95    78    77    2
    96   215   214    1
    97   161   160    1
    98    82    81   ar
    99   104   105    1
   100    79    76    1
   101    79    80    1
   102   120   121    1
   103   120   117    1
   104   159   160   ar
   105   159   157   ar
   106    77    76    1
   107    77    84   am
   108   108   105    1
   109   108   109    1
   110   118   117    1
   111   118   119    2
   112   160   158   ar
   113   122   121   ar
   114   122   124   ar
   115   121   123   ar
   116    88    85    1
   117    88    89    1
   118   117   116    1
   119    86    87    2
   120    86    85    1
   121   105   106    1
   122   181   183   ar
   123   181   179   ar
   124   205   204    2
   125    81    80    1
   126    81    83   ar
   127   157   155   ar
   128   124   126   ar
   129   109   110   ar
   130   109   111   ar
   131   123   125   ar
   132    84    85    1
   133   110   112   ar
   134   183   182   ar
   135   178   179   ar
   136   178   176   ar
   137   138   137    1
   138   111   113   ar
   139   179   177   ar
   140   126   125   ar
   141   158   156   ar
   142   204   203    1
   143   204   206   am
   144   203   202    1
   145   107   106    2
   146   112   114   ar
   147   155   156   ar
   148   155   154    1
   149   113   114   ar
   150   137   135   ar
   151   137   136   ar
   152   176   175   ar
   153   209   208    2
   154   135   133   ar
   155   182   180   ar
   156   114   115    1
   157   212   211   ar
   158   208   207    1
   159   207   206    1
   160   207   210    1
   161   177   180   ar
   162   177   175   ar
   163   201   199   ar
   164   201   200   ar
   165   195   194    2
   166   136   134   ar
   167   199   197   ar
   168   175   174    1
   169   133   132   ar
   170   154   151    1
   171   202   194   am
   172   147   149   ar
   173   147   145   ar
   174   170   171    1
   175   149   148   ar
   176   194   193    1
   177   134   132   ar
   178   211   210    1
   179   211   213   ar
   180   132   131    1
   181   200   198   ar
   182   190   189    1
   183   153   152    2
   184   151   152    1
   185   151   150    1
   186   197   198   ar
   187   197   196    1
   188   171   174    1
   189   171   172    1
   190   145   144   ar
   191   152   162   am
   192   131   128    1
   193   148   146   ar
   194   189   191    1
   195   189   188    1
   196   168   167   ar
   197   196   193    1
   198   193   192    1
   199   169   167   ar
   200   130   129    2
   201   187   186    2
   202   167   166    1
   203   144   146   ar
   204   144   143    1
   205   162   163    1
   206   172   173    2
   207   129   128    1
   208   129   139   am
   209   192   186   am
   210   163   166    1
   211   163   164    1
   212   186   185    1
   213   128   127    1
   214   188   185    1
   215   140   139    1
   216   140   143    1
   217   140   141    1
   218   185   184    1
   219   142   141    2
   220   164   165    2
