@<TRIPOS>MOLECULE
tmp/1qooA00.pdb
 90 85 0 0 0
SMALL
GASTEIGER

@<TRIPOS>ATOM
      1  N         58.3580   38.9050   82.2420 N.3    41  THR41      -0.1218
      2  CA        59.7880   38.8190   81.9290 C.3    41  THR41       0.1862
      3  C         60.2770   37.5430   82.5960 C.2    41  THR41       0.2287
      4  O         59.8720   37.2350   83.7170 O.2    41  THR41      -0.2866
      5  CB        60.5750   40.0290   82.5000 C.3    41  THR41       0.1770
      6  OG1       60.3140   41.1980   81.7090 O.3    41  THR41      -0.2211
      7  CG2       62.0800   39.7530   82.5100 C.3    41  THR41       0.0375
      8  N         60.3860   37.0740   71.6780 N.3    81  VAL81      -0.1231
      9  CA        61.7320   37.2240   72.2340 C.3    81  VAL81       0.1692
     10  C         61.8810   36.2130   73.3820 C.2    81  VAL81       0.2592
     11  O         60.8750   35.7500   73.9190 O.2    81  VAL81      -0.2718
     12  CB        61.9250   38.6540   72.7700 C.3    81  VAL81       0.0266
     13  CG1       61.7380   39.6510   71.6450 C.3    81  VAL81       0.0020
     14  CG2       60.9210   38.9490   73.8770 C.3    81  VAL81       0.0020
     15  N         63.0990   35.8280   73.7610 N.am   82  ASP82      -0.1974
     16  CA        64.3630   36.2750   73.1930 C.3    82  ASP82       0.1709
     17  C         65.1030   35.1420   72.4870 C.2    82  ASP82       0.2293
     18  O         65.9250   35.3770   71.5960 O.2    82  ASP82      -0.2864
     19  CB        65.2590   36.7800   74.3160 C.3    82  ASP82       0.1436
     20  CG        65.3250   38.2760   74.3700 C.2    82  ASP82       0.3671
     21  OD1       64.4580   38.8820   75.0290 O.co2  82  ASP82      -0.2456
     22  OD2       66.2440   38.8430   73.7370 O.co2  82  ASP82      -0.2456
     23  N         70.7200   39.1080   81.5710 N.3   100  SER100     -0.1202
     24  CA        69.4780   39.5310   80.9530 C.3   100  SER100      0.2020
     25  C         68.9860   38.4650   79.9910 C.2   100  SER100      0.2619
     26  O         69.7290   37.5500   79.6250 O.2   100  SER100     -0.2717
     27  CB        69.6670   40.8660   80.2350 C.3   100  SER100      0.2103
     28  OG        70.6130   40.7680   79.1830 O.3   100  SER100     -0.2182
     29  N         67.7260   38.5820   79.5900 N.am  101  ALA101     -0.1965
     30  CA        67.1220   37.6210   78.6850 C.3   101  ALA101      0.1728
     31  C         67.8830   37.5060   77.3650 C.2   101  ALA101      0.2616
     32  O         68.0460   36.4080   76.8220 O.2   101  ALA101     -0.2715
     33  CB        65.6800   37.9970   78.4330 C.3   101  ALA101      0.0334
     34  N         68.3720   38.6400   76.8740 N.am  102  GLY102     -0.1955
     35  CA        69.1070   38.6650   75.6210 C.3   102  GLY102      0.1869
     36  C         70.4340   37.9360   75.6670 C.2   102  GLY102      0.2309
     37  O         71.0810   37.7270   74.6310 O.2   102  GLY102     -0.2863
     38  N         65.2920   37.3130   68.8260 N.3   126  TYR126     -0.1241
     39  CA        65.3280   38.7680   68.8620 C.3   126  TYR126      0.1605
     40  C         66.7000   39.2780   68.4240 C.2   126  TYR126      0.2264
     41  O         67.7370   38.8890   68.9710 O.2   126  TYR126     -0.2867
     42  CB        64.9860   39.2800   70.2660 C.3   126  TYR126      0.0534
     43  CG        65.0810   40.7900   70.4060 C.ar  126  TYR126     -0.0201
     44  CD1       64.0630   41.6210   69.9390 C.ar  126  TYR126     -0.0009
     45  CD2       66.2020   41.3890   70.9880 C.ar  126  TYR126     -0.0009
     46  CE1       64.1600   43.0120   70.0470 C.ar  126  TYR126      0.0417
     47  CE2       66.3110   42.7760   71.1000 C.ar  126  TYR126      0.0417
     48  CZ        65.2900   43.5820   70.6280 C.ar  126  TYR126      0.1957
     49  OH        65.4150   44.9550   70.7180 O.3   126  TYR126     -0.2866
     50  N         68.5290   46.7240   71.6970 N.3   131  TYR131     -0.1227
     51  CA        69.0490   45.9500   72.8420 C.3   131  TYR131      0.1736
     52  C         70.1430   44.9060   72.5730 C.2   131  TYR131      0.2595
     53  O         70.8740   44.5460   73.4910 O.2   131  TYR131     -0.2718
     54  CB        67.9250   45.2590   73.6040 C.3   131  TYR131      0.0548
     55  CG        67.0230   46.1800   74.3780 C.ar  131  TYR131     -0.0200
     56  CD1       67.3700   46.6270   75.6530 C.ar  131  TYR131     -0.0009
     57  CD2       65.7900   46.5680   73.8550 C.ar  131  TYR131     -0.0009
     58  CE1       66.5030   47.4360   76.3910 C.ar  131  TYR131      0.0417
     59  CE2       64.9150   47.3730   74.5810 C.ar  131  TYR131      0.0417
     60  CZ        65.2740   47.7970   75.8420 C.ar  131  TYR131      0.1957
     61  OH        64.3770   48.5460   76.5540 O.3   131  TYR131     -0.2866
     62  N         70.2290   44.3930   71.3470 N.am  132  ASN132     -0.1974
     63  CA        71.2400   43.3920   70.9870 C.3   132  ASN132      0.1688
     64  C         72.0490   43.8570   69.7820 C.2   132  ASN132      0.2292
     65  O         71.9650   43.2710   68.6950 O.2   132  ASN132     -0.2864
     66  CB        70.6000   42.0450   70.6170 C.3   132  ASN132      0.1181
     67  CG        69.7810   41.4360   71.7350 C.2   132  ASN132      0.2629
     68  OD1       68.9800   40.5370   71.4910 O.2   132  ASN132     -0.2716
     69  ND2       69.9760   41.9040   72.9550 N.am  132  ASN132     -0.0877
     70  N         62.6910   38.8580   77.4340 N.3   215  GLY215     -0.1210
     71  CA        63.0140   40.1790   77.9430 C.3   215  GLY215      0.1956
     72  C         61.8890   41.1810   77.9500 C.2   215  GLY215      0.2611
     73  O         61.9190   42.1320   78.7340 O.2   215  GLY215     -0.2717
     74  N         60.8970   40.9610   77.0900 N.am  216  ASN216     -0.1974
     75  CA        59.7600   41.8580   76.9810 C.3   216  ASN216      0.1688
     76  C         58.4520   41.0730   76.9760 C.2   216  ASN216      0.2292
     77  O         58.1020   40.4450   75.9780 O.2   216  ASN216     -0.2864
     78  CB        59.9020   42.7070   75.7090 C.3   216  ASN216      0.1181
     79  CG        58.7350   43.6600   75.4920 C.2   216  ASN216      0.2629
     80  OD1       58.4490   44.0410   74.3620 O.2   216  ASN216     -0.2716
     81  ND2       58.0590   44.0470   76.5690 N.am  216  ASN216     -0.0877
     82  N         56.0800   40.9450   73.9910 N.3   219  GLU219     -0.1245
     83  CA        56.3880   40.1260   72.8180 C.3   219  GLU219      0.1567
     84  C         56.7420   38.7060   73.2410 C.2   219  GLU219      0.2260
     85  O         57.7410   38.1250   72.8160 O.2   219  GLU219     -0.2867
     86  CB        57.5140   40.7790   72.0180 C.3   219  GLU219      0.0388
     87  CG        57.1350   42.1680   71.5110 C.3   219  GLU219      0.1160
     88  CD        58.2730   42.8960   70.8230 C.2   219  GLU219      0.3649
     89  OE1       59.4440   42.7390   71.2410 O.co2 219  GLU219     -0.2457
     90  OE2       57.9890   43.6460   69.8640 O.co2 219  GLU219     -0.2457
@<TRIPOS>BOND
     1    40    39    1
     2    40    41    2
     3    65    64    2
     4    38    39    1
     5    39    42    1
     6    64    63    1
     7    90    88   ar
     8    44    46   ar
     9    44    43   ar
    10    46    48   ar
    11    42    43    1
    12    43    45   ar
    13    66    63    1
    14    66    67    1
    15    48    49    1
    16    48    47   ar
    17    88    89   ar
    18    88    87    1
    19    63    62    1
    20    45    47   ar
    21    62    52   am
    22    68    67    2
    23    87    86    1
    24    18    17    2
    25    13    12    1
    26     8     9    1
    27    50    51    1
    28    67    69   am
    29    86    83    1
    30     9    12    1
    31     9    10    1
    32    17    16    1
    33    52    51    1
    34    52    53    2
    35    12    14    1
    36    85    84    2
    37    83    84    1
    38    83    82    1
    39    51    54    1
    40    16    15    1
    41    16    19    1
    42    10    15   am
    43    10    11    2
    44    54    55    1
    45    22    20   ar
    46    57    55   ar
    47    57    59   ar
    48    19    20    1
    49    80    79    2
    50    20    21   ar
    51    55    56   ar
    52    59    60   ar
    53    37    36    2
    54    79    78    1
    55    79    81   am
    56    35    36    1
    57    35    34    1
    58    56    58   ar
    59    78    75    1
    60    60    58   ar
    61    60    61    1
    62    77    76    2
    63    32    31    2
    64    34    31   am
    65    76    75    1
    66    75    74    1
    67    74    72   am
    68    31    30    1
    69    70    71    1
    70    71    72    1
    71    72    73    2
    72    33    30    1
    73    30    29    1
    74    28    27    1
    75    29    25   am
    76    26    25    2
    77    25    24    1
    78    27    24    1
    79    24    23    1
    80     6     5    1
    81     2     1    1
    82     2     5    1
    83     2     3    1
    84     5     7    1
    85     3     4    2
