@<TRIPOS>MOLECULE
tmp/1qosB00.pdb
 102 99 0 0 0
SMALL
GASTEIGER

@<TRIPOS>ATOM
      1  N        -11.6280   55.6710   26.1580 N.3    83  VAL83      -0.1231
      2  CA       -12.9040   55.6020   26.8660 C.3    83  VAL83       0.1692
      3  C        -12.9190   56.6060   28.0320 C.2    83  VAL83       0.2592
      4  O        -11.8600   56.9840   28.5320 O.2    83  VAL83      -0.2718
      5  CB       -13.1670   54.1700   27.4130 C.3    83  VAL83       0.0266
      6  CG1      -13.1540   53.1420   26.2820 C.3    83  VAL83       0.0020
      7  CG2      -12.1500   53.8140   28.4980 C.3    83  VAL83       0.0020
      8  N        -14.1020   57.0330   28.4870 N.am   84  ASP84      -0.1974
      9  CA       -15.4090   56.6190   27.9520 C.3    84  ASP84       0.1709
     10  C        -16.1680   57.7630   27.2980 C.2    84  ASP84       0.2293
     11  O        -17.0980   57.5320   26.5090 O.2    84  ASP84      -0.2864
     12  CB       -16.2990   56.0850   29.0730 C.3    84  ASP84       0.1436
     13  CG       -16.2260   54.5970   29.2130 C.2    84  ASP84       0.3671
     14  OD1      -16.8230   53.8980   28.3680 O.co2  84  ASP84      -0.2456
     15  OD2      -15.5850   54.1250   30.1720 O.co2  84  ASP84      -0.2456
     16  N        -21.4530   54.3060   36.6200 N.3   102  SER102     -0.1202
     17  CA       -20.3420   53.7190   35.8840 C.3   102  SER102      0.2020
     18  C        -19.8620   54.6960   34.8270 C.2   102  SER102      0.2619
     19  O        -20.6030   55.5980   34.4310 O.2   102  SER102     -0.2717
     20  CB       -20.7670   52.4100   35.2210 C.3   102  SER102      0.2103
     21  OG       -21.7740   52.6410   34.2510 O.3   102  SER102     -0.2182
     22  N        -18.6290   54.4990   34.3670 N.am  103  ALA103     -0.1965
     23  CA       -18.0250   55.3580   33.3580 C.3   103  ALA103      0.1728
     24  C        -18.9130   55.5530   32.1250 C.2   103  ALA103      0.2616
     25  O        -19.0000   56.6570   31.5890 O.2   103  ALA103     -0.2715
     26  CB       -16.6970   54.8040   32.9580 C.3   103  ALA103      0.0334
     27  N        -19.5840   54.4900   31.6930 N.am  104  GLY104     -0.1955
     28  CA       -20.4540   54.6000   30.5370 C.3   104  GLY104      0.1869
     29  C        -21.6930   55.4580   30.7550 C.2   104  GLY104      0.2309
     30  O        -22.3890   55.7980   29.7930 O.2   104  GLY104     -0.2863
     31  N        -16.6290   55.7610   23.6810 N.3   128  TYR128     -0.1241
     32  CA       -16.7960   54.3210   23.6930 C.3   128  TYR128      0.1605
     33  C        -18.2280   53.9390   23.3320 C.2   128  TYR128      0.2264
     34  O        -19.1910   54.3730   23.9800 O.2   128  TYR128     -0.2867
     35  CB       -16.4340   53.7580   25.0550 C.3   128  TYR128      0.0534
     36  CG       -16.7140   52.2860   25.1520 C.ar  128  TYR128     -0.0201
     37  CD1      -15.8650   51.3590   24.5550 C.ar  128  TYR128     -0.0009
     38  CD2      -17.8710   51.8200   25.7810 C.ar  128  TYR128     -0.0009
     39  CE1      -16.1640   50.0000   24.5760 C.ar  128  TYR128      0.0417
     40  CE2      -18.1830   50.4650   25.8080 C.ar  128  TYR128      0.0417
     41  CZ       -17.3280   49.5580   25.2030 C.ar  128  TYR128      0.1957
     42  OH       -17.6450   48.2140   25.2030 O.3   128  TYR128     -0.2866
     43  N        -20.6270   46.2910   26.5710 N.3   133  TYR133     -0.1227
     44  CA       -20.9480   47.0220   27.8030 C.3   133  TYR133      0.1736
     45  C        -21.8500   48.2500   27.6230 C.2   133  TYR133      0.2595
     46  O        -22.4320   48.7300   28.5940 O.2   133  TYR133     -0.2718
     47  CB       -19.6610   47.4300   28.5310 C.3   133  TYR133      0.0548
     48  CG       -18.6720   46.2960   28.7140 C.ar  133  TYR133     -0.0200
     49  CD1      -18.7730   45.4140   29.7960 C.ar  133  TYR133     -0.0009
     50  CD2      -17.6350   46.1000   27.7970 C.ar  133  TYR133     -0.0009
     51  CE1      -17.8590   44.3570   29.9580 C.ar  133  TYR133      0.0417
     52  CE2      -16.7200   45.0510   27.9440 C.ar  133  TYR133      0.0417
     53  CZ       -16.8330   44.1830   29.0260 C.ar  133  TYR133      0.1957
     54  OH       -15.9150   43.1560   29.1630 O.3   133  TYR133     -0.2866
     55  N        -21.9390   48.7730   26.4000 N.am  134  ASN134     -0.1974
     56  CA       -22.7820   49.9370   26.0900 C.3   134  ASN134      0.1688
     57  C        -23.7020   49.5620   24.9360 C.2   134  ASN134      0.2292
     58  O        -23.5070   50.0100   23.8100 O.2   134  ASN134     -0.2864
     59  CB       -21.9290   51.1350   25.6450 C.3   134  ASN134      0.1181
     60  CG       -21.3030   51.8950   26.8000 C.2   134  ASN134      0.2629
     61  OD1      -20.8710   53.0370   26.6270 O.2   134  ASN134     -0.2716
     62  ND2      -21.2370   51.2740   27.9710 N.am  134  ASN134     -0.0877
     63  N        -26.7800   50.4570   24.2210 N.3   136  TRP136     -0.1241
     64  CA       -27.6220   51.5600   23.7540 C.3   136  TRP136      0.1605
     65  C        -26.9790   52.4370   22.6760 C.2   136  TRP136      0.2264
     66  O        -27.6790   52.9640   21.8180 O.2   136  TRP136     -0.2867
     67  CB       -28.0160   52.4320   24.9410 C.3   136  TRP136      0.0550
     68  CG       -26.8200   52.8620   25.7420 C.ar  136  TRP136      0.0003
     69  CD1      -25.9320   53.8510   25.4240 C.ar  136  TRP136      0.0946
     70  CD2      -26.3460   52.2830   26.9710 C.ar  136  TRP136      0.0152
     71  NE1      -24.9340   53.9180   26.3640 N.ar  136  TRP136     -0.2442
     72  CE2      -25.1680   52.9680   27.3240 C.ar  136  TRP136      0.0810
     73  CE3      -26.8140   51.2570   27.8000 C.ar  136  TRP136      0.0012
     74  CZ2      -24.4380   52.6550   28.4830 C.ar  136  TRP136      0.0191
     75  CZ3      -26.0880   50.9480   28.9520 C.ar  136  TRP136      0.0001
     76  CH2      -24.9150   51.6470   29.2800 C.ar  136  TRP136      0.0015
     77  N        -13.9100   53.6600   32.1650 N.3   217  GLY217     -0.1210
     78  CA       -14.2610   52.3610   32.7270 C.3   217  GLY217      0.1956
     79  C        -13.2550   51.2410   32.5410 C.2   217  GLY217      0.2611
     80  O        -13.5130   50.0880   32.9300 O.2   217  GLY217     -0.2717
     81  N        -12.1030   51.5890   31.9750 N.am  218  ASN218     -0.1974
     82  CA       -11.0420   50.6290   31.7160 C.3   218  ASN218      0.1688
     83  C         -9.7080   51.3460   31.5180 C.2   218  ASN218      0.2292
     84  O         -9.4490   51.9120   30.4540 O.2   218  ASN218     -0.2864
     85  CB       -11.3970   49.8010   30.4750 C.3   218  ASN218      0.1181
     86  CG       -10.2310   48.9760   29.9640 C.2   218  ASN218      0.2629
     87  OD1       -9.9870   48.9150   28.7560 O.2   218  ASN218     -0.2716
     88  ND2       -9.4980   48.3400   30.8820 N.am  218  ASN218     -0.0877
     89  N         -7.0200   50.4090   30.6590 N.3   220  ALA220     -0.1231
     90  CA        -6.2620   49.9220   29.5100 C.3   220  ALA220      0.1694
     91  C         -6.4250   50.8770   28.3290 C.2   220  ALA220      0.2591
     92  O         -5.4470   51.2080   27.6450 O.2   220  ALA220     -0.2718
     93  CB        -6.7190   48.5130   29.1230 C.3   220  ALA220      0.0304
     94  N         -7.6610   51.3240   28.1050 N.am  221  GLU221     -0.1979
     95  CA        -7.9600   52.2430   27.0130 C.3   221  GLU221      0.1602
     96  C         -8.1530   53.6820   27.5030 C.2   221  GLU221      0.2287
     97  O         -9.1420   54.3420   27.1810 O.2   221  GLU221     -0.2864
     98  CB        -9.1860   51.7600   26.2370 C.3   221  GLU221      0.0415
     99  CG        -8.9500   50.4860   25.4340 C.3   221  GLU221      0.1163
    100  CD       -10.1350   50.1360   24.5430 C.2   221  GLU221      0.3649
    101  OE1      -11.1670   49.6620   25.0850 O.co2 221  GLU221     -0.2457
    102  OE2      -10.0370   50.3460   23.3060 O.co2 221  GLU221     -0.2457
@<TRIPOS>BOND
     1    66    65    2
     2    65    64    1
     3   102   100   ar
     4    33    32    1
     5    33    34    2
     6    31    32    1
     7    32    35    1
     8    64    63    1
     9    64    67    1
    10    58    57    2
    11   100   101   ar
    12   100    99    1
    13    37    39   ar
    14    37    36   ar
    15    39    41   ar
    16    57    56    1
    17    67    68    1
    18    35    36    1
    19    36    38   ar
    20    41    42    1
    21    41    40   ar
    22    69    68   ar
    23    69    71   ar
    24    99    98    1
    25    59    56    1
    26    59    60    1
    27    68    70   ar
    28    38    40   ar
    29    56    55    1
    30     1     2    1
    31    98    95    1
    32     6     5    1
    33    71    72   ar
    34    55    45   am
    35    11    10    2
    36    43    44    1
    37    61    60    2
    38    60    62   am
    39     2     5    1
    40     2     3    1
    41    70    72   ar
    42    70    73   ar
    43    95    96    1
    44    95    94    1
    45    97    96    2
    46    10     9    1
    47    72    74   ar
    48     5     7    1
    49    45    44    1
    50    45    46    2
    51    92    91    2
    52    50    52   ar
    53    50    48   ar
    54    73    75   ar
    55    44    47    1
    56    52    53   ar
    57     9     8    1
    58     9    12    1
    59     3     8   am
    60     3     4    2
    61    94    91   am
    62    91    90    1
    63    14    13   ar
    64    74    76   ar
    65    47    48    1
    66    48    49   ar
    67    87    86    2
    68    75    76   ar
    69    53    54    1
    70    53    51   ar
    71    12    13    1
    72    93    90    1
    73    13    15   ar
    74    90    89    1
    75    30    29    2
    76    49    51   ar
    77    86    85    1
    78    86    88   am
    79    84    83    2
    80    85    82    1
    81    28    29    1
    82    28    27    1
    83    83    82    1
    84    25    24    2
    85    27    24   am
    86    82    81    1
    87    81    79   am
    88    24    23    1
    89    77    78    1
    90    79    78    1
    91    79    80    2
    92    26    23    1
    93    23    22    1
    94    21    20    1
    95    22    18   am
    96    19    18    2
    97    18    17    1
    98    20    17    1
    99    17    16    1
