@<TRIPOS>MOLECULE
tmp/1qotC01.pdb
 105 102 0 0 0
SMALL
GASTEIGER

@<TRIPOS>ATOM
      1  N         83.7090   11.8130   38.1320 N.3    83  VAL83      -0.1231
      2  CA        82.4310   11.1170   37.9750 C.3    83  VAL83       0.1692
      3  C         82.5960    9.8070   38.7510 C.2    83  VAL83       0.2592
      4  O         83.7230    9.3740   38.9540 O.2    83  VAL83      -0.2718
      5  CB        82.1480   10.8040   36.4860 C.3    83  VAL83       0.0266
      6  CG1       82.0920   12.0830   35.6780 C.3    83  VAL83       0.0020
      7  CG2       83.2090    9.8770   35.9240 C.3    83  VAL83       0.0020
      8  N         81.5120    9.1680   39.1920 N.am   84  ASP84      -0.1974
      9  CA        80.1380    9.6150   38.9960 C.3    84  ASP84       0.1709
     10  C         79.4420    9.9840   40.2850 C.2    84  ASP84       0.2293
     11  O         78.4810   10.7580   40.2810 O.2    84  ASP84      -0.2864
     12  CB        79.3300    8.5100   38.3430 C.3    84  ASP84       0.1436
     13  CG        78.9950    8.8170   36.9290 C.2    84  ASP84       0.3671
     14  OD1       77.9430    9.4590   36.7120 O.co2  84  ASP84      -0.2456
     15  OD2       79.7960    8.4300   36.0510 O.co2  84  ASP84      -0.2456
     16  N         74.1540    1.4030   34.8390 N.3   102  SER102     -0.1202
     17  CA        75.0960    2.4490   34.4930 C.3   102  SER102      0.2020
     18  C         75.8330    2.8880   35.7470 C.2   102  SER102      0.2619
     19  O         75.3860    2.6270   36.8690 O.2   102  SER102     -0.2717
     20  CB        74.3490    3.6500   33.9310 C.3   102  SER102      0.2103
     21  OG        73.5450    3.2690   32.8310 O.3   102  SER102     -0.2182
     22  N         76.9760    3.5400   35.5580 N.am  103  ALA103     -0.1965
     23  CA        77.7460    4.0570   36.6800 C.3   103  ALA103      0.1728
     24  C         76.9670    5.2590   37.2060 C.2   103  ALA103      0.2617
     25  O         76.9360    5.5090   38.4070 O.2   103  ALA103     -0.2715
     26  CB        79.1120    4.4790   36.2220 C.3   103  ALA103      0.0334
     27  N         76.3020    5.9660   36.2930 N.am  104  GLY104     -0.1940
     28  CA        75.5030    7.1300   36.6510 C.3   104  GLY104      0.2014
     29  C         74.2260    6.7430   37.3660 C.2   104  GLY104      0.2638
     30  O         73.4620    7.6090   37.8190 O.2   104  GLY104     -0.2714
     31  N         73.9790    5.4350   37.4170 N.am  105  MET105     -0.1976
     32  CA        72.8190    4.8700   38.0940 C.3   105  MET105      0.1605
     33  C         73.3040    4.2350   39.4030 C.2   105  MET105      0.2287
     34  O         72.5160    3.6360   40.1410 O.2   105  MET105     -0.2864
     35  CB        72.1370    3.8270   37.2000 C.3   105  MET105      0.0413
     36  CG        70.7760    4.2480   36.6560 C.3   105  MET105      0.0598
     37  SD        70.6110    4.0870   34.8520 S.3   105  MET105     -0.1393
     38  CE        71.0450    2.3790   34.5820 C.3   105  MET105      0.0692
     39  N         78.5430   13.9680   38.8550 N.3   128  TYR128     -0.1241
     40  CA        78.3490   14.2070   37.4210 C.3   128  TYR128      0.1605
     41  C         76.8960   14.5610   37.1230 C.2   128  TYR128      0.2264
     42  O         75.9780   13.8250   37.4900 O.2   128  TYR128     -0.2867
     43  CB        78.7470   12.9830   36.6020 C.3   128  TYR128      0.0534
     44  CG        78.4930   13.1620   35.1320 C.ar  128  TYR128     -0.0201
     45  CD1       79.3840   13.8740   34.3380 C.ar  128  TYR128     -0.0009
     46  CD2       77.3370   12.6550   34.5370 C.ar  128  TYR128     -0.0009
     47  CE1       79.1280   14.0830   32.9830 C.ar  128  TYR128      0.0417
     48  CE2       77.0720   12.8580   33.1860 C.ar  128  TYR128      0.0417
     49  CZ        77.9700   13.5760   32.4140 C.ar  128  TYR128      0.1957
     50  OH        77.7120   13.8140   31.0810 O.3   128  TYR128     -0.2866
     51  N         74.3920   12.6720   29.1030 N.3   133  TYR133     -0.1227
     52  CA        74.2120   11.3400   29.7000 C.3   133  TYR133      0.1736
     53  C         73.3470   11.2070   30.9570 C.2   133  TYR133      0.2595
     54  O         72.8310   10.1280   31.2430 O.2   133  TYR133     -0.2718
     55  CB        75.5670   10.7100   29.9710 C.3   133  TYR133      0.0548
     56  CG        76.4560   10.7030   28.7650 C.ar  133  TYR133     -0.0200
     57  CD1       76.1050    9.9940   27.6250 C.ar  133  TYR133     -0.0009
     58  CD2       77.6560   11.4040   28.7640 C.ar  133  TYR133     -0.0009
     59  CE1       76.9260    9.9810   26.5090 C.ar  133  TYR133      0.0417
     60  CE2       78.4880   11.4020   27.6550 C.ar  133  TYR133      0.0417
     61  CZ        78.1180   10.6820   26.5310 C.ar  133  TYR133      0.1957
     62  OH        78.9420   10.6390   25.4340 O.3   133  TYR133     -0.2866
     63  N         73.2260   12.2810   31.7270 N.am  134  ASN134     -0.1974
     64  CA        72.4220   12.2700   32.9530 C.3   134  ASN134      0.1688
     65  C         71.3730   13.3800   32.8830 C.2   134  ASN134      0.2292
     66  O         71.4030   14.3170   33.6760 O.2   134  ASN134     -0.2864
     67  CB        73.3050   12.5320   34.1850 C.3   134  ASN134      0.1181
     68  CG        74.0730   11.3070   34.6580 C.2   134  ASN134      0.2629
     69  OD1       74.4180   11.2130   35.8340 O.2   134  ASN134     -0.2716
     70  ND2       74.3710   10.3880   33.7530 N.am  134  ASN134     -0.0877
     71  N         68.3490   13.5710   33.9390 N.3   136  TRP136     -0.1241
     72  CA        67.5050   13.6910   35.1300 C.3   136  TRP136      0.1605
     73  C         68.0770   14.5970   36.2210 C.2   136  TRP136      0.2264
     74  O         67.3360   15.1650   37.0120 O.2   136  TRP136     -0.2867
     75  CB        67.2480   12.3070   35.7180 C.3   136  TRP136      0.0550
     76  CG        68.5090   11.5450   35.9750 C.ar  136  TRP136      0.0003
     77  CD1       69.3490   11.6720   37.0480 C.ar  136  TRP136      0.0946
     78  CD2       69.1040   10.5730   35.1160 C.ar  136  TRP136      0.0152
     79  NE1       70.4380   10.8450   36.9050 N.ar  136  TRP136     -0.2442
     80  CE2       70.3110   10.1560   35.7280 C.ar  136  TRP136      0.0810
     81  CE3       68.7400   10.0070   33.8880 C.ar  136  TRP136      0.0012
     82  CZ2       71.1510    9.2020   35.1510 C.ar  136  TRP136      0.0191
     83  CZ3       69.5760    9.0570   33.3150 C.ar  136  TRP136      0.0001
     84  CH2       70.7670    8.6650   33.9490 C.ar  136  TRP136      0.0015
     85  N         81.8460    6.2090   35.4940 N.3   217  GLY217     -0.1210
     86  CA        81.3670    5.9730   34.1440 C.3   217  GLY217      0.1956
     87  C         82.3510    6.1910   33.0190 C.2   217  GLY217      0.2611
     88  O         82.2420    5.5590   31.9720 O.2   217  GLY217     -0.2717
     89  N         83.3090    7.0820   33.2330 N.am  218  ASN218     -0.1974
     90  CA        84.3090    7.3970   32.2240 C.3   218  ASN218      0.1688
     91  C         85.6880    7.4540   32.8820 C.2   218  ASN218      0.2292
     92  O         85.9710    8.3480   33.6770 O.2   218  ASN218     -0.2864
     93  CB        83.9560    8.7370   31.5650 C.3   218  ASN218      0.1181
     94  CG        85.0100    9.2080   30.5790 C.2   218  ASN218      0.2629
     95  OD1       85.2200   10.4120   30.4190 O.2   218  ASN218     -0.2716
     96  ND2       85.6830    8.2680   29.9180 N.am  218  ASN218     -0.0877
     97  N         87.7190   10.7420   33.4590 N.3   221  GLU221     -0.1245
     98  CA        87.3450   11.7030   34.4900 C.3   221  GLU221      0.1567
     99  C         87.2490   10.9780   35.8340 C.2   221  GLU221      0.2260
    100  O         86.2930   11.1410   36.5950 O.2   221  GLU221     -0.2867
    101  CB        86.0220   12.3710   34.1220 C.3   221  GLU221      0.0388
    102  CG        86.1020   13.1950   32.8530 C.3   221  GLU221      0.1160
    103  CD        84.8440   13.9950   32.6040 C.2   221  GLU221      0.3649
    104  OE1       84.6530   15.0360   33.2800 O.co2 221  GLU221     -0.2457
    105  OE2       84.0430   13.5820   31.7350 O.co2 221  GLU221     -0.2457
@<TRIPOS>BOND
     1    62    61    1
     2    59    61   ar
     3    59    57   ar
     4    61    60   ar
     5    57    56   ar
     6    60    58   ar
     7    58    56   ar
     8    56    55    1
     9    51    52    1
    10    52    55    1
    11    52    53    1
    12    96    94   am
    13    95    94    2
    14    94    93    1
    15    53    54    2
    16    53    63   am
    17    50    49    1
    18    93    90    1
    19    63    64    1
    20   105   103   ar
    21    88    87    2
    22    90    91    1
    23    90    89    1
    24    49    47   ar
    25    49    48   ar
    26   103   102    1
    27   103   104   ar
    28    21    20    1
    29   102   101    1
    30    91    92    2
    31    65    64    1
    32    65    66    2
    33    64    67    1
    34    47    45   ar
    35    87    89   am
    36    87    86    1
    37    48    46   ar
    38    83    81   ar
    39    83    84   ar
    40    97    98    1
    41    70    68   am
    42    81    78   ar
    43    20    17    1
    44    71    72    1
    45    84    82   ar
    46   101    98    1
    47    86    85    1
    48    67    68    1
    49    45    44   ar
    50    98    99    1
    51    17    16    1
    52    17    18    1
    53    46    44   ar
    54    38    37    1
    55    68    69    2
    56    37    36    1
    57    78    80   ar
    58    78    76   ar
    59    72    75    1
    60    72    73    1
    61    44    43    1
    62    82    80   ar
    63    22    18   am
    64    22    23    1
    65     6     5    1
    66    75    76    1
    67    80    79   ar
    68    18    19    2
    69    99   100    2
    70     7     5    1
    71    76    77   ar
    72    15    13   ar
    73    73    74    2
    74    26    23    1
    75    27    28    1
    76    27    24   am
    77     5     2    1
    78    43    40    1
    79    28    29    1
    80    36    35    1
    81    23    24    1
    82    14    13   ar
    83    79    77   ar
    84    13    12    1
    85    41    40    1
    86    41    42    2
    87    35    32    1
    88    24    25    2
    89    29    31   am
    90    29    30    2
    91    31    32    1
    92    40    39    1
    93     2     1    1
    94     2     3    1
    95    32    33    1
    96    12     9    1
    97     3     4    2
    98     3     8   am
    99     9     8    1
   100     9    10    1
   101    33    34    2
   102    11    10    2
