@<TRIPOS>MOLECULE
tmp/1qotD01.pdb
 105 102 0 0 0
SMALL
GASTEIGER

@<TRIPOS>ATOM
      1  N         65.8360  -35.2820   76.6730 N.3    83  VAL83      -0.1231
      2  CA        67.1340  -35.2820   76.0020 C.3    83  VAL83       0.1692
      3  C         66.9850  -34.2870   74.8460 C.2    83  VAL83       0.2592
      4  O         65.8640  -34.0290   74.4190 O.2    83  VAL83      -0.2718
      5  CB        67.4620  -36.6770   75.4300 C.3    83  VAL83       0.0266
      6  CG1       67.5040  -37.7120   76.5440 C.3    83  VAL83       0.0020
      7  CG2       66.4330  -37.0780   74.3710 C.3    83  VAL83       0.0020
      8  N         68.0740  -33.7100   74.3340 N.am   84  ASP84      -0.1974
      9  CA        69.4420  -33.9510   74.7890 C.3    84  ASP84       0.1709
     10  C         70.0950  -32.7340   75.4240 C.2    84  ASP84       0.2293
     11  O         71.0300  -32.8570   76.2210 O.2    84  ASP84      -0.2864
     12  CB        70.2960  -34.3680   73.6110 C.3    84  ASP84       0.1436
     13  CG        70.6580  -35.8050   73.6620 C.2    84  ASP84       0.3671
     14  OD1       71.6940  -36.1180   74.2930 O.co2  84  ASP84      -0.2456
     15  OD2       69.8940  -36.6080   73.0880 O.co2  84  ASP84      -0.2456
     16  N         75.7660  -36.3560   66.1560 N.3   102  SER102     -0.1202
     17  CA        74.8020  -36.9150   67.0850 C.3   102  SER102      0.2020
     18  C         74.0200  -35.7850   67.7290 C.2   102  SER102      0.2619
     19  O         74.4500  -34.6240   67.7020 O.2   102  SER102     -0.2717
     20  CB        75.5310  -37.6770   68.1810 C.3   102  SER102      0.2103
     21  OG        76.3800  -38.6670   67.6330 O.3   102  SER102     -0.2182
     22  N         72.8620  -36.1200   68.2920 N.am  103  ALA103     -0.1965
     23  CA        72.0490  -35.1310   68.9880 C.3   103  ALA103      0.1728
     24  C         72.7780  -34.8220   70.2990 C.2   103  ALA103      0.2617
     25  O         72.7740  -33.6910   70.7710 O.2   103  ALA103     -0.2715
     26  CB        70.6870  -35.6850   69.2640 C.3   103  ALA103      0.0334
     27  N         73.4460  -35.8360   70.8460 N.am  104  GLY104     -0.1940
     28  CA        74.2040  -35.6890   72.0790 C.3   104  GLY104      0.2014
     29  C         75.4690  -34.8810   71.8740 C.2   104  GLY104      0.2638
     30  O         76.1920  -34.5780   72.8360 O.2   104  GLY104     -0.2714
     31  N         75.7560  -34.5870   70.6060 N.am  105  MET105     -0.1976
     32  CA        76.9160  -33.7850   70.2080 C.3   105  MET105      0.1605
     33  C         76.4210  -32.3840   69.8150 C.2   105  MET105      0.2287
     34  O         77.2100  -31.5270   69.4020 O.2   105  MET105     -0.2864
     35  CB        77.6530  -34.4450   69.0350 C.3   105  MET105      0.0413
     36  CG        79.0150  -35.0320   69.3960 C.3   105  MET105      0.0598
     37  SD        79.2450  -36.7760   68.9140 S.3   105  MET105     -0.1393
     38  CE        78.8660  -36.7300   67.1690 C.3   105  MET105      0.0692
     39  N         70.9030  -34.8810   79.1060 N.3   128  TYR128     -0.1241
     40  CA        71.1270  -36.3270   79.0780 C.3   128  TYR128      0.1605
     41  C         72.5770  -36.6460   79.4170 C.2   128  TYR128      0.2264
     42  O         73.5090  -36.1200   78.7970 O.2   128  TYR128     -0.2867
     43  CB        70.7890  -36.9000   77.7080 C.3   128  TYR128      0.0534
     44  CG        71.0800  -38.3750   77.6160 C.ar  128  TYR128     -0.0201
     45  CD1       70.1910  -39.3100   78.1370 C.ar  128  TYR128     -0.0009
     46  CD2       72.2680  -38.8380   77.0440 C.ar  128  TYR128     -0.0009
     47  CE1       70.4760  -40.6690   78.0970 C.ar  128  TYR128      0.0417
     48  CE2       72.5640  -40.1940   77.0010 C.ar  128  TYR128      0.0417
     49  CZ        71.6640  -41.1060   77.5300 C.ar  128  TYR128      0.1957
     50  OH        71.9600  -42.4540   77.5140 O.3   128  TYR128     -0.2866
     51  N         75.3560  -44.1130   76.1540 N.3   133  TYR133     -0.1227
     52  CA        75.5420  -43.2790   74.9620 C.3   133  TYR133      0.1736
     53  C         76.3800  -42.0060   75.0900 C.2   133  TYR133      0.2595
     54  O         76.9150  -41.5240   74.0930 O.2   133  TYR133     -0.2718
     55  CB        74.1830  -42.9270   74.3560 C.3   133  TYR133      0.0548
     56  CG        73.3900  -44.1260   73.9030 C.ar  133  TYR133     -0.0200
     57  CD1       72.7870  -44.9790   74.8250 C.ar  133  TYR133     -0.0009
     58  CD2       73.2390  -44.4070   72.5530 C.ar  133  TYR133     -0.0009
     59  CE1       72.0510  -46.0800   74.4140 C.ar  133  TYR133      0.0417
     60  CE2       72.5000  -45.5100   72.1260 C.ar  133  TYR133      0.0417
     61  CZ        71.9100  -46.3390   73.0670 C.ar  133  TYR133      0.1957
     62  OH        71.1550  -47.4130   72.6680 O.3   133  TYR133     -0.2866
     63  N         76.4660  -41.4440   76.2930 N.am  134  ASN134     -0.1974
     64  CA        77.2370  -40.2180   76.5410 C.3   134  ASN134      0.1688
     65  C         78.2530  -40.4740   77.6500 C.2   134  ASN134      0.2292
     66  O         78.1710  -39.8750   78.7140 O.2   134  ASN134     -0.2864
     67  CB        76.3110  -39.0770   77.0000 C.3   134  ASN134      0.1181
     68  CG        75.5630  -38.3960   75.8550 C.2   134  ASN134      0.2629
     69  OD1       75.1910  -37.2300   75.9730 O.2   134  ASN134     -0.2716
     70  ND2       75.3190  -39.1160   74.7660 N.am  134  ASN134     -0.0877
     71  N         81.2370  -39.4050   78.1340 N.3   136  TRP136     -0.1241
     72  CA        82.0450  -38.2440   78.5000 C.3   136  TRP136      0.1605
     73  C         81.4220  -37.3600   79.5700 C.2   136  TRP136      0.2264
     74  O         82.1340  -36.6790   80.3060 O.2   136  TRP136     -0.2867
     75  CB        82.3250  -37.3970   77.2650 C.3   136  TRP136      0.0550
     76  CG        81.0780  -37.0270   76.5240 C.ar  136  TRP136      0.0003
     77  CD1       80.2090  -36.0140   76.8200 C.ar  136  TRP136      0.0946
     78  CD2       80.5360  -37.7010   75.3870 C.ar  136  TRP136      0.0152
     79  NE1       79.1520  -36.0200   75.9410 N.ar  136  TRP136     -0.2442
     80  CE2       79.3280  -37.0460   75.0500 C.ar  136  TRP136      0.0810
     81  CE3       80.9490  -38.7950   74.6150 C.ar  136  TRP136      0.0012
     82  CZ2       78.5360  -37.4510   73.9780 C.ar  136  TRP136      0.0191
     83  CZ3       80.1590  -39.1950   73.5490 C.ar  136  TRP136      0.0001
     84  CH2       78.9670  -38.5250   73.2410 C.ar  136  TRP136      0.0015
     85  N         67.9170  -36.7830   70.7430 N.3   217  GLY217     -0.1210
     86  CA        68.4440  -38.0530   70.2760 C.3   217  GLY217      0.1956
     87  C         67.4890  -39.2270   70.2500 C.2   217  GLY217      0.2611
     88  O         67.6490  -40.1500   69.4470 O.2   217  GLY217     -0.2717
     89  N         66.5020  -39.2000   71.1340 N.am  218  ASN218     -0.1974
     90  CA        65.5230  -40.2730   71.2190 C.3   218  ASN218      0.1688
     91  C         64.1250  -39.6720   71.3440 C.2   218  ASN218      0.2292
     92  O         63.7920  -39.0570   72.3670 O.2   218  ASN218     -0.2864
     93  CB        65.8490  -41.1620   72.4250 C.3   218  ASN218      0.1181
     94  CG        64.8090  -42.2350   72.6660 C.2   218  ASN218      0.2629
     95  OD1       64.5660  -42.6240   73.8100 O.2   218  ASN218     -0.2716
     96  ND2       64.1880  -42.7240   71.5910 N.am  218  ASN218     -0.0877
     97  N         61.9840  -39.7530   74.6130 N.3   221  GLU221     -0.1245
     98  CA        62.2990  -38.9180   75.7670 C.3   221  GLU221      0.1567
     99  C         62.3770  -37.4610   75.3070 C.2   221  GLU221      0.2260
    100  O         63.3030  -36.7200   75.6440 O.2   221  GLU221     -0.2867
    101  CB        63.6110  -39.3760   76.3990 C.3   221  GLU221      0.0388
    102  CG        63.5450  -40.7820   76.9670 C.3   221  GLU221      0.1160
    103  CD        64.7870  -41.1500   77.7510 C.2   221  GLU221      0.3649
    104  OE1       64.9280  -40.6780   78.9040 O.co2 221  GLU221     -0.2457
    105  OE2       65.6220  -41.9110   77.2150 O.co2 221  GLU221     -0.2457
@<TRIPOS>BOND
     1    16    17    1
     2    17    18    1
     3    17    20    1
     4    38    37    1
     5    21    20    1
     6    19    18    2
     7    18    22   am
     8    22    23    1
     9    37    36    1
    10    23    26    1
    11    23    24    1
    12    35    36    1
    13    35    32    1
    14    34    33    2
    15    88    87    2
    16    33    32    1
    17    32    31    1
    18    87    86    1
    19    87    89   am
    20    86    85    1
    21    24    25    2
    22    24    27   am
    23    31    29   am
    24    27    28    1
    25    89    90    1
    26    90    91    1
    27    90    93    1
    28    91    92    2
    29    96    94   am
    30    29    28    1
    31    29    30    2
    32    60    58   ar
    33    60    61   ar
    34    93    94    1
    35    58    56   ar
    36    94    95    2
    37    62    61    1
    38    61    59   ar
    39    15    13   ar
    40    84    83   ar
    41    84    82   ar
    42    83    81   ar
    43    12    13    1
    44    12     9    1
    45    13    14   ar
    46    56    55    1
    47    56    57   ar
    48    82    80   ar
    49    54    53    2
    50     8     9    1
    51     8     3   am
    52    55    52    1
    53     7     5    1
    54    59    57   ar
    55     4     3    2
    56    97    98    1
    57    81    78   ar
    58    70    68   am
    59     9    10    1
    60     3     2    1
    61    52    53    1
    62    52    51    1
    63    80    78   ar
    64    80    79   ar
    65    53    63   am
    66    99   100    2
    67    99    98    1
    68    78    76   ar
    69    10    11    2
    70     5     2    1
    71     5     6    1
    72    98   101    1
    73    68    69    2
    74    68    67    1
    75    79    77   ar
    76     2     1    1
    77    63    64    1
    78   101   102    1
    79    76    77   ar
    80    76    75    1
    81    64    67    1
    82    64    65    1
    83   102   103    1
    84    48    46   ar
    85    48    49   ar
    86    46    44   ar
    87   105   103   ar
    88    75    72    1
    89    50    49    1
    90    49    47   ar
    91    44    43    1
    92    44    45   ar
    93    65    66    2
    94    43    40    1
    95   103   104   ar
    96    47    45   ar
    97    71    72    1
    98    72    73    1
    99    42    41    2
   100    40    39    1
   101    40    41    1
   102    73    74    2
