@<TRIPOS>MOLECULE
tmp/1qovB03.pdb
 220 213 0 0 0
SMALL
GASTEIGER

@<TRIPOS>ATOM
      1  N         17.4080   96.1190   12.5110 N.3   171  PRO171     -0.2116
      2  CA        16.8570   97.4440   12.6260 C.3   171  PRO171      0.1372
      3  C         15.8960   97.6140   13.8170 C.2   171  PRO171      0.2244
      4  O         15.9110   98.6710   14.4250 O.2   171  PRO171     -0.2868
      5  CB        16.1030   97.7600   11.3080 C.3   171  PRO171      0.0268
      6  CG        15.7610   96.3360   10.8650 C.3   171  PRO171      0.0207
      7  CD        16.9670   95.4930   11.2360 C.3   171  PRO171      0.0892
      8  N         17.9810   97.9690   16.9050 N.3   174  MET174     -0.1230
      9  CA        18.5500   99.2960   17.0620 C.3   174  MET174      0.1702
     10  C         17.5220  100.2130   17.7780 C.2   174  MET174      0.2592
     11  O         17.9450  100.9450   18.6410 O.2   174  MET174     -0.2718
     12  CB        18.9040   99.9800   15.7470 C.3   174  MET174      0.0401
     13  CG        20.1150   99.3710   15.0210 C.3   174  MET174      0.0596
     14  SD        20.1550   99.9350   13.3020 S.3   174  MET174     -0.1393
     15  CE        21.6660   99.1860   12.7320 C.3   174  MET174      0.0692
     16  N         16.2770  100.1260   17.3970 N.am  175  ILE175     -0.1980
     17  CA        15.2060  100.8930   17.9910 C.3   175  ILE175      0.1595
     18  C         15.0000  100.4760   19.4570 C.2   175  ILE175      0.2287
     19  O         14.9540  101.3470   20.3390 O.2   175  ILE175     -0.2864
     20  CB        13.9140  100.7540   17.1910 C.3   175  ILE175      0.0276
     21  CG1       14.1780  101.3140   15.7680 C.3   175  ILE175      0.0022
     22  CG2       12.7480  101.4760   17.8660 C.3   175  ILE175      0.0022
     23  CD1       12.9870  101.0410   14.8570 C.3   175  ILE175      0.0001
     24  N         17.7780  101.8990   21.5380 N.3   178  SER178     -0.1202
     25  CA        17.6310  103.3290   21.7100 C.3   178  SER178      0.2020
     26  C         16.6210  103.6480   22.8320 C.2   178  SER178      0.2618
     27  O         16.8600  104.5640   23.6000 O.2   178  SER178     -0.2717
     28  CB        17.1810  103.9850   20.3760 C.3   178  SER178      0.2103
     29  OG        18.2940  103.7030   19.4840 O.3   178  SER178     -0.2182
     30  N         15.5300  102.9260   22.9130 N.am  179  PHE179     -0.1975
     31  CA        14.5590  103.0750   23.9620 C.3   179  PHE179      0.1639
     32  C         15.1370  102.6720   25.3160 C.2   179  PHE179      0.2290
     33  O         14.8940  103.3890   26.3030 O.2   179  PHE179     -0.2864
     34  CB        13.2620  102.3540   23.6270 C.3   179  PHE179      0.0560
     35  CG        12.3390  103.1210   22.7320 C.ar  179  PHE179     -0.0200
     36  CD1       11.7520  104.3140   23.1520 C.ar  179  PHE179     -0.0042
     37  CD2       12.0100  102.6360   21.4710 C.ar  179  PHE179     -0.0042
     38  CE1       10.8750  105.0120   22.3170 C.ar  179  PHE179     -0.0003
     39  CE2       11.1710  103.3310   20.6350 C.ar  179  PHE179     -0.0003
     40  CZ        10.5910  104.5280   21.0550 C.ar  179  PHE179     -0.0000
     41  N         17.5320  105.4850   26.3200 N.3   182  THR182     -0.1218
     42  CA        16.7730  106.7000   26.5680 C.3   182  THR182      0.1862
     43  C         16.0060  106.5880   27.9000 C.2   182  THR182      0.2287
     44  O         16.0500  107.5170   28.6860 O.2   182  THR182     -0.2866
     45  CB        15.8730  107.0610   25.3780 C.3   182  THR182      0.1770
     46  OG1       16.7220  107.2420   24.2160 O.3   182  THR182     -0.2211
     47  CG2       15.2010  108.4100   25.6500 C.3   182  THR182      0.0375
     48  N         18.4240  107.1590   30.7920 N.3   185  LEU185     -0.1231
     49  CA        18.7310  108.5900   30.8330 C.3   185  LEU185      0.1693
     50  C         17.5850  109.3380   31.5600 C.2   185  LEU185      0.2591
     51  O         17.8590  110.0960   32.4740 O.2   185  LEU185     -0.2718
     52  CB        18.8120  109.1000   29.4010 C.3   185  LEU185      0.0284
     53  CG        19.5050  110.3830   29.0240 C.3   185  LEU185      0.0019
     54  CD1       19.2050  110.7820   27.5620 C.3   185  LEU185      0.0001
     55  CD2       19.2520  111.5690   29.9070 C.3   185  LEU185      0.0001
     56  N         16.3620  109.0870   31.1490 N.am  186  ALA186     -0.1980
     57  CA        15.1910  109.7400   31.7200 C.3   186  ALA186      0.1597
     58  C         14.9270  109.3940   33.1890 C.2   186  ALA186      0.2287
     59  O         14.5450  110.2610   34.0140 O.2   186  ALA186     -0.2864
     60  CB        13.9420  109.5020   30.9020 C.3   186  ALA186      0.0319
     61  N         17.5010  111.3960   35.2160 N.3   189  LEU189     -0.1231
     62  CA        17.0790  112.7950   35.2940 C.3   189  LEU189      0.1693
     63  C         15.8890  112.9850   36.2210 C.2   189  LEU189      0.2592
     64  O         15.8890  113.9150   37.0140 O.2   189  LEU189     -0.2718
     65  CB        16.7060  113.3140   33.9140 C.3   189  LEU189      0.0284
     66  CG        17.8640  113.4510   32.9010 C.3   189  LEU189      0.0019
     67  CD1       17.2420  113.8160   31.5580 C.3   189  LEU189      0.0001
     68  CD2       18.8960  114.4550   33.3530 C.3   189  LEU189      0.0001
     69  N         14.9190  112.0670   36.2100 N.am  190  HIS190     -0.1976
     70  CA        13.7470  112.1470   37.0400 C.3   190  HIS190      0.1656
     71  C         14.0900  112.0170   38.5200 C.2   190  HIS190      0.2291
     72  O         13.7260  112.9040   39.3480 O.2   190  HIS190     -0.2864
     73  CB        12.6430  111.1800   36.6220 C.3   190  HIS190      0.0771
     74  CG        11.4580  111.3330   37.5320 C.ar  190  HIS190      0.0820
     75  ND1       10.7680  112.5030   37.6830 N.ar  190  HIS190     -0.2267
     76  CD2       10.8610  110.4100   38.3590 C.ar  190  HIS190      0.1154
     77  CE1        9.7690  112.3170   38.5390 C.ar  190  HIS190      0.1986
     78  NE2        9.8290  111.0750   38.9760 N.ar  190  HIS190     -0.2212
     79  N         16.0890  115.0980   39.6030 N.3   193  LEU193     -0.1231
     80  CA        15.3350  116.3320   39.6500 C.3   193  LEU193      0.1693
     81  C         14.5000  116.4330   40.9340 C.2   193  LEU193      0.2591
     82  O         14.6750  117.3970   41.6910 O.2   193  LEU193     -0.2718
     83  CB        14.4710  116.5620   38.4330 C.3   193  LEU193      0.0284
     84  CG        13.7830  117.9340   38.3190 C.3   193  LEU193      0.0019
     85  CD1       14.7980  119.0830   38.3590 C.3   193  LEU193      0.0001
     86  CD2       12.9840  117.9990   37.0440 C.3   193  LEU193      0.0001
     87  N         13.7030  115.4100   41.1990 N.am  194  VAL194     -0.1980
     88  CA        12.9470  115.3570   42.4360 C.3   194  VAL194      0.1595
     89  C         13.8060  115.4790   43.6650 C.2   194  VAL194      0.2287
     90  O         13.4740  116.2790   44.5700 O.2   194  VAL194     -0.2864
     91  CB        12.0490  114.1160   42.4740 C.3   194  VAL194      0.0276
     92  CG1       11.3370  113.9480   43.8240 C.3   194  VAL194      0.0022
     93  CG2       11.0370  114.2270   41.3550 C.3   194  VAL194      0.0022
     94  N          7.7710  122.4520   42.4230 N.3   209  PRO209     -0.2116
     95  CA         7.6800  122.0010   41.0670 C.3   209  PRO209      0.1372
     96  C          7.9880  123.1230   40.0880 C.2   209  PRO209      0.2244
     97  O          8.5440  122.8300   39.0190 O.2   209  PRO209     -0.2868
     98  CB         6.2670  121.4530   40.8370 C.3   209  PRO209      0.0268
     99  CG         5.5520  121.7850   42.1130 C.3   209  PRO209      0.0207
    100  CD         6.5210  122.1920   43.1710 C.3   209  PRO209      0.0892
    101  N         11.5000  122.9770   39.4050 N.3   212  GLU212     -0.1231
    102  CA        11.8580  121.8220   38.5610 C.3   212  GLU212      0.1699
    103  C         11.6360  122.2120   37.1010 C.2   212  GLU212      0.2592
    104  O         12.4990  121.9570   36.2670 O.2   212  GLU212     -0.2718
    105  CB        11.0240  120.5820   38.9140 C.3   212  GLU212      0.0402
    106  CG        11.2860  120.0540   40.3090 C.3   212  GLU212      0.1161
    107  CD        10.4430  118.8850   40.7480 C.2   212  GLU212      0.3649
    108  OE1        9.2120  118.9320   40.8340 O.co2 212  GLU212     -0.2457
    109  OE2       11.0440  117.8200   41.0430 O.co2 212  GLU212     -0.2457
    110  N         10.4920  122.8210   36.8080 N.am  213  ASP213     -0.1974
    111  CA        10.2210  123.2600   35.4340 C.3   213  ASP213      0.1709
    112  C         11.2140  124.3400   35.0060 C.2   213  ASP213      0.2293
    113  O         11.8520  124.1980   33.9600 O.2   213  ASP213     -0.2864
    114  CB         8.8090  123.7720   35.2590 C.3   213  ASP213      0.1436
    115  CG         7.7400  122.7360   35.1330 C.2   213  ASP213      0.3671
    116  OD1        7.8950  121.6470   34.5240 O.co2 213  ASP213     -0.2456
    117  OD2        6.6270  122.9880   35.6360 O.co2 213  ASP213     -0.2456
    118  N         14.8180  122.7940   34.1210 N.3   216  PHE216     -0.1241
    119  CA        14.8580  122.2000   32.7890 C.3   216  PHE216      0.1605
    120  C         14.7200  123.2030   31.6480 C.2   216  PHE216      0.2264
    121  O         15.3470  122.9860   30.6040 O.2   216  PHE216     -0.2867
    122  CB        13.8790  121.0090   32.6400 C.3   216  PHE216      0.0534
    123  CG        14.7570  119.7720   32.7840 C.ar  216  PHE216     -0.0203
    124  CD1       15.3990  119.2660   31.6830 C.ar  216  PHE216     -0.0042
    125  CD2       14.9450  119.1650   34.0010 C.ar  216  PHE216     -0.0042
    126  CE1       16.2340  118.1550   31.7960 C.ar  216  PHE216     -0.0003
    127  CE2       15.7720  118.0620   34.1330 C.ar  216  PHE216     -0.0003
    128  CZ        16.4310  117.5630   33.0290 C.ar  216  PHE216     -0.0000
    129  N         17.7000  123.1150   28.9550 N.3   220  VAL220     -0.1245
    130  CA        17.5020  122.6790   27.5930 C.3   220  VAL220      0.1561
    131  C         16.3860  123.3830   26.8540 C.2   220  VAL220      0.2260
    132  O         16.1290  123.0560   25.6880 O.2   220  VAL220     -0.2867
    133  CB        17.2630  121.1420   27.4930 C.3   220  VAL220      0.0252
    134  CG1       18.4690  120.4020   28.0710 C.3   220  VAL220      0.0019
    135  CG2       15.9990  120.7210   28.1900 C.3   220  VAL220      0.0019
    136  N         13.1280  123.3230   27.6470 N.3   222  TYR222     -0.1227
    137  CA        11.8390  122.6570   27.6720 C.3   222  TYR222      0.1736
    138  C         11.7830  121.7910   28.9380 C.2   222  TYR222      0.2596
    139  O         12.7660  121.1620   29.3210 O.2   222  TYR222     -0.2718
    140  CB        11.5710  121.8160   26.4150 C.3   222  TYR222      0.0548
    141  CG        10.2510  121.0900   26.4500 C.ar  222  TYR222     -0.0200
    142  CD1        9.0330  121.7200   26.2880 C.ar  222  TYR222     -0.0009
    143  CD2       10.2140  119.6940   26.6650 C.ar  222  TYR222     -0.0009
    144  CE1        7.8210  121.0370   26.3630 C.ar  222  TYR222      0.0417
    145  CE2        9.0120  119.0110   26.7250 C.ar  222  TYR222      0.0417
    146  CZ         7.8190  119.6690   26.6060 C.ar  222  TYR222      0.1957
    147  OH         6.6090  118.9780   26.7030 O.3   222  TYR222     -0.2866
    148  N         10.6080  121.7620   29.5140 N.am  223  SER223     -0.1938
    149  CA        10.3050  120.9340   30.6660 C.3   223  SER223      0.2055
    150  C          9.0780  120.1270   30.2980 C.2   223  SER223      0.2643
    151  O          8.0620  120.7060   29.8890 O.2   223  SER223     -0.2714
    152  CB         9.9320  121.8120   31.8870 C.3   223  SER223      0.2130
    153  OG         9.8150  120.9040   32.9640 O.3   223  SER223     -0.2179
    154  N          9.1170  118.7980   30.3950 N.am  224  ILE224     -0.1963
    155  CA         7.9210  118.0390   30.0470 C.3   224  ILE224      0.1727
    156  C          6.8850  118.1410   31.1480 C.2   224  ILE224      0.2617
    157  O          5.6890  117.8920   30.9460 O.2   224  ILE224     -0.2715
    158  CB         8.3070  116.5770   29.7000 C.3   224  ILE224      0.0290
    159  CG1        7.1570  115.9710   28.9140 C.3   224  ILE224      0.0022
    160  CG2        8.6390  115.7570   30.9400 C.3   224  ILE224      0.0023
    161  CD1        7.4510  114.6420   28.2600 C.3   224  ILE224      0.0001
    162  N          7.3200  118.4210   32.3710 N.am  225  GLY225     -0.1940
    163  CA         6.3790  118.5800   33.4800 C.3   225  GLY225      0.2014
    164  C          6.2750  117.3210   34.3630 C.2   225  GLY225      0.2639
    165  O          6.5900  116.2090   33.9300 O.2   225  GLY225     -0.2714
    166  N          5.6360  117.4680   35.5130 N.am  226  THR226     -0.1950
    167  CA         5.5660  116.4520   36.5370 C.3   226  THR226      0.1897
    168  C          4.6410  115.3120   36.1480 C.2   226  THR226      0.2313
    169  O          4.9640  114.1520   36.4420 O.2   226  THR226     -0.2863
    170  CB         5.2140  116.9880   37.9490 C.3   226  THR226      0.1794
    171  OG1        3.8840  117.4770   37.9130 O.3   226  THR226     -0.2208
    172  CG2        6.2560  117.9750   38.3960 C.3   226  THR226      0.0378
    173  N          6.5600  113.4660   32.7170 N.3   229  ILE229     -0.1231
    174  CA         7.7200  112.6420   32.9660 C.3   229  ILE229      0.1692
    175  C          7.3120  111.2100   33.3660 C.2   229  ILE229      0.2592
    176  O          8.0030  110.2810   32.9590 O.2   229  ILE229     -0.2718
    177  CB         8.6870  113.2720   33.9550 C.3   229  ILE229      0.0266
    178  CG1       10.0570  112.5680   33.9810 C.3   229  ILE229      0.0019
    179  CG2        8.1160  113.3270   35.3650 C.3   229  ILE229      0.0020
    180  CD1       10.7240  112.3720   32.6360 C.3   229  ILE229      0.0001
    181  N          6.1880  111.0150   34.0310 N.am  230  HIS230     -0.1976
    182  CA         5.7280  109.7010   34.4640 C.3   230  HIS230      0.1656
    183  C          5.1240  108.9680   33.2700 C.2   230  HIS230      0.2291
    184  O          5.3090  107.7580   33.0900 O.2   230  HIS230     -0.2864
    185  CB         4.7760  109.7720   35.6710 C.3   230  HIS230      0.0771
    186  CG         5.4930  110.2990   36.8860 C.ar  230  HIS230      0.0820
    187  ND1        5.4750  111.6240   37.3080 N.ar  230  HIS230     -0.2267
    188  CD2        6.3090  109.6200   37.7420 C.ar  230  HIS230      0.1154
    189  CE1        6.2690  111.7360   38.3530 C.ar  230  HIS230      0.1986
    190  NE2        6.8030  110.5230   38.6820 N.ar  230  HIS230     -0.2212
    191  N          6.0560  109.5950   30.2360 N.3   232  LEU232     -0.1245
    192  CA         7.2110  109.3300   29.4190 C.3   232  LEU232      0.1561
    193  C          7.9840  108.0710   29.8570 C.2   232  LEU232      0.2260
    194  O          8.2980  107.2310   29.0080 O.2   232  LEU232     -0.2867
    195  CB         8.1200  110.5370   29.3710 C.3   232  LEU232      0.0270
    196  CG         9.3200  110.4430   28.4320 C.3   232  LEU232      0.0019
    197  CD1        8.8830  110.4240   26.9800 C.3   232  LEU232      0.0001
    198  CD2       10.3390  111.5130   28.7310 C.3   232  LEU232      0.0001
    199  N          8.5560  104.9460   27.3860 N.3   236  LEU236     -0.1245
    200  CA         9.8910  104.5660   27.0250 C.3   236  LEU236      0.1561
    201  C         10.1870  103.0950   27.4070 C.2   236  LEU236      0.2260
    202  O         10.7600  102.3630   26.5810 O.2   236  LEU236     -0.2867
    203  CB        10.9590  105.4630   27.6180 C.3   236  LEU236      0.0270
    204  CG        11.0470  106.9010   27.1160 C.3   236  LEU236      0.0019
    205  CD1       12.0580  107.7060   27.9180 C.3   236  LEU236      0.0001
    206  CD2       11.3870  106.9650   25.6400 C.3   236  LEU236      0.0001
    207  N         20.5230   95.7300    4.8010 N.3   263  TRP263     -0.1241
    208  CA        20.7020   97.1420    4.4970 C.3   263  TRP263      0.1605
    209  C         20.9830   97.4210    3.0200 C.2   263  TRP263      0.2264
    210  O         21.0520   98.5780    2.5800 O.2   263  TRP263     -0.2867
    211  CB        21.8250   97.6930    5.4020 C.3   263  TRP263      0.0550
    212  CG        21.3320   97.7000    6.8340 C.ar  263  TRP263      0.0003
    213  CD1       21.4420   96.6890    7.7420 C.ar  263  TRP263      0.0946
    214  CD2       20.5640   98.7320    7.4700 C.ar  263  TRP263      0.0152
    215  NE1       20.8250   97.0470    8.9260 N.ar  263  TRP263     -0.2442
    216  CE2       20.2800   98.2910    8.7780 C.ar  263  TRP263      0.0810
    217  CE3       20.1240   99.9960    7.0690 C.ar  263  TRP263      0.0012
    218  CZ2       19.5960   99.0800    9.7080 C.ar  263  TRP263      0.0191
    219  CZ3       19.4120  100.7600    7.9940 C.ar  263  TRP263      0.0001
    220  CH2       19.1500  100.3040    9.3000 C.ar  263  TRP263      0.0015
@<TRIPOS>BOND
     1   210   209    2
     2   209   208    1
     3   208   207    1
     4   208   211    1
     5   211   212    1
     6   212   214   ar
     7   212   213   ar
     8   217   214   ar
     9   217   219   ar
    10   214   216   ar
    11   213   215   ar
    12   219   220   ar
    13   216   215   ar
    14   216   218   ar
    15   220   218   ar
    16     6     7    1
    17     6     5    1
    18     7     1    1
    19     5     2    1
    20     1     2    1
    21     2     3    1
    22    15    14    1
    23    14    13    1
    24     3     4    2
    25    23    21    1
    26    13    12    1
    27    12     9    1
    28    21    20    1
    29     8     9    1
    30     9    10    1
    31    20    22    1
    32    20    17    1
    33    16    10   am
    34    16    17    1
    35    10    11    2
    36    17    18    1
    37    18    19    2
    38    29    28    1
    39    28    25    1
    40    39    40   ar
    41    39    37   ar
    42    40    38   ar
    43    37    35   ar
    44    24    25    1
    45    25    26    1
    46    38    36   ar
    47    35    36   ar
    48    35    34    1
    49    26    30   am
    50    26    27    2
    51    30    31    1
    52    34    31    1
    53    31    32    1
    54    46    45    1
    55    32    33    2
    56    45    47    1
    57    45    42    1
    58   206   204    1
    59   132   131    2
    60   142   144   ar
    61   142   141   ar
    62    41    42    1
    63   144   146   ar
    64   140   141    1
    65   140   137    1
    66   141   143   ar
    67    42    43    1
    68   202   201    2
    69   146   147    1
    70   146   145   ar
    71   143   145   ar
    72   131   130    1
    73   197   196    1
    74   200   199    1
    75   200   201    1
    76   200   203    1
    77   204   203    1
    78   204   205    1
    79   133   130    1
    80   133   134    1
    81   133   135    1
    82    54    53    1
    83   130   129    1
    84   136   137    1
    85   137   138    1
    86    43    44    2
    87   161   159    1
    88   196   198    1
    89   196   195    1
    90   159   158    1
    91   138   139    2
    92   138   148   am
    93   194   193    2
    94    53    52    1
    95    53    55    1
    96   195   192    1
    97    52    49    1
    98   192   193    1
    99   192   191    1
   100   148   149    1
   101   158   155    1
   102   158   160    1
   103   151   150    2
   104   155   154    1
   105   155   156    1
   106   150   154   am
   107   150   149    1
   108   121   120    2
   109   149   152    1
   110    48    49    1
   111    49    50    1
   112    60    57    1
   113   157   156    2
   114   156   162   am
   115    56    50   am
   116    56    57    1
   117    67    66    1
   118    50    51    2
   119   120   119    1
   120   124   126   ar
   121   124   123   ar
   122    57    58    1
   123   126   128   ar
   124   152   153    1
   125   162   163    1
   126   180   178    1
   127   122   123    1
   128   122   119    1
   129   173   174    1
   130   123   125   ar
   131   119   118    1
   132    66    68    1
   133    66    65    1
   134   176   175    2
   135   174   175    1
   136   174   177    1
   137   128   127   ar
   138   184   183    2
   139    58    59    2
   140   183   182    1
   141   175   181   am
   142   163   164    1
   143    65    62    1
   144   165   164    2
   145   177   178    1
   146   177   179    1
   147   113   112    2
   148   125   127   ar
   149   181   182    1
   150   164   166   am
   151   182   185    1
   152   116   115   ar
   153   112   111    1
   154   115   114    1
   155   115   117   ar
   156    61    62    1
   157   114   111    1
   158    62    63    1
   159   111   110    1
   160   166   167    1
   161   185   186    1
   162   168   169    2
   163   168   167    1
   164    69    63   am
   165    69    70    1
   166    63    64    2
   167   104   103    2
   168   167   170    1
   169    73    70    1
   170    73    74    1
   171   110   103   am
   172   186   187   ar
   173   186   188   ar
   174    70    71    1
   175    86    84    1
   176   103   102    1
   177   187   189   ar
   178    74    75   ar
   179    74    76   ar
   180    75    77   ar
   181   188   190   ar
   182   171   170    1
   183   170   172    1
   184    84    85    1
   185    84    83    1
   186   189   190   ar
   187    76    78   ar
   188    83    80    1
   189    71    72    2
   190    77    78   ar
   191   102   105    1
   192   102   101    1
   193   105   106    1
   194    97    96    2
   195    79    80    1
   196    80    81    1
   197    96    95    1
   198   106   107    1
   199   107   108   ar
   200   107   109   ar
   201    98    95    1
   202    98    99    1
   203    81    87   am
   204    81    82    2
   205    95    94    1
   206    87    88    1
   207    93    91    1
   208    99   100    1
   209    94   100    1
   210    88    91    1
   211    88    89    1
   212    91    92    1
   213    89    90    2
