@<TRIPOS>MOLECULE
tmp/1qpaA02.pdb
 66 63 0 0 0
SMALL
GASTEIGER

@<TRIPOS>ATOM
      1  N          3.8560   69.0390   65.8470 N.3   213  THR213     -0.1218
      2  CA         2.9270   70.0410   65.2840 C.3   213  THR213      0.1862
      3  C          1.5430   69.7570   65.7450 C.2   213  THR213      0.2287
      4  O          0.7270   70.6920   65.6720 O.2   213  THR213     -0.2866
      5  CB         3.0800   70.0630   63.7700 C.3   213  THR213      0.1770
      6  OG1        2.8290   68.7060   63.3240 O.3   213  THR213     -0.2211
      7  CG2        4.4490   70.4210   63.2580 C.3   213  THR213      0.0375
      8  N          4.9860   64.9030   65.1280 N.3   228  PRO228     -0.2102
      9  CA         5.1770   65.5660   63.8580 C.3   228  PRO228      0.1504
     10  C          4.3380   65.0380   62.6990 C.2   228  PRO228      0.2576
     11  O          4.5370   65.6250   61.6160 O.2   228  PRO228     -0.2718
     12  CB         6.6550   65.2880   63.5530 C.3   228  PRO228      0.0282
     13  CG         6.8120   63.8680   64.0500 C.3   228  PRO228      0.0208
     14  CD         5.9860   63.8530   65.3360 C.3   228  PRO228      0.0893
     15  N          3.5890   63.9700   62.8630 N.am  229  LEU229     -0.1966
     16  CA         2.8350   63.3230   61.7860 C.3   229  LEU229      0.1728
     17  C          1.4510   62.9320   62.2230 C.2   229  LEU229      0.2616
     18  O          1.3340   62.4140   63.3640 O.2   229  LEU229     -0.2715
     19  CB         3.4900   62.0150   61.3190 C.3   229  LEU229      0.0311
     20  CG         4.8630   62.0910   60.6900 C.3   229  LEU229      0.0022
     21  CD1        5.3220   60.6850   60.3210 C.3   229  LEU229      0.0001
     22  CD2        4.9990   63.0420   59.5280 C.3   229  LEU229      0.0001
     23  N          0.4340   63.1100   61.3610 N.am  230  LYS230     -0.1977
     24  CA        -0.8650   62.6360   61.7810 C.3   230  LYS230      0.1596
     25  C         -0.7640   61.0920   61.8700 C.2   230  LYS230      0.2287
     26  O         -0.0630   60.4960   61.0340 O.2   230  LYS230     -0.2864
     27  CB        -1.9830   63.0650   60.8160 C.3   230  LYS230      0.0298
     28  CG        -3.2280   63.4280   61.6340 C.3   230  LYS230      0.0038
     29  CD        -3.0160   63.5580   63.1470 C.3   230  LYS230      0.0206
     30  CE        -2.7770   64.8770   63.8600 C.3   230  LYS230      0.1093
     31  NZ        -4.0670   65.6170   64.1190 N.3   230  LYS230     -0.1314
     32  N          7.6270   62.1990   54.1140 N.3   304  ALA304     -0.1231
     33  CA         7.1440   63.1410   53.0620 C.3   304  ALA304      0.1694
     34  C          6.6590   64.4280   53.7070 C.2   304  ALA304      0.2593
     35  O          5.8500   64.3000   54.6390 O.2   304  ALA304     -0.2718
     36  CB         5.9720   62.5680   52.2410 C.3   304  ALA304      0.0304
     37  N          7.0730   65.5830   53.2040 N.am  305  GLY305     -0.1942
     38  CA         6.5640   66.8180   53.7750 C.3   305  GLY305      0.2014
     39  C          7.4290   67.5120   54.8200 C.2   305  GLY305      0.2638
     40  O          7.0800   68.6120   55.2750 O.2   305  GLY305     -0.2714
     41  N          8.5280   66.8590   55.1910 N.am  306  LYS306     -0.1977
     42  CA         9.4710   67.3020   56.1990 C.3   306  LYS306      0.1596
     43  C         10.8400   67.4470   55.5620 C.2   306  LYS306      0.2287
     44  O         11.2070   66.7130   54.6360 O.2   306  LYS306     -0.2864
     45  CB         9.6130   66.2680   57.3460 C.3   306  LYS306      0.0298
     46  CG         8.3260   65.9090   58.0500 C.3   306  LYS306      0.0038
     47  CD         7.6900   67.0450   58.7660 C.3   306  LYS306      0.0206
     48  CE         6.4150   66.7090   59.4720 C.3   306  LYS306      0.1093
     49  NZ         5.9100   67.9310   60.1580 N.3   306  LYS306     -0.1314
     50  N          2.3370   64.8250   51.8550 N.3   330  SER330     -0.1202
     51  CA         2.6740   64.9140   53.2880 C.3   330  SER330      0.2020
     52  C          2.2230   63.6220   53.9880 C.2   330  SER330      0.2619
     53  O          1.1050   63.1420   53.8890 O.2   330  SER330     -0.2717
     54  CB         1.9580   66.1150   53.8140 C.3   330  SER330      0.2103
     55  OG         2.2810   66.2230   55.1820 O.3   330  SER330     -0.2182
     56  N          3.1770   63.0280   54.6910 N.am  331  ALA331     -0.1965
     57  CA         3.0360   61.7740   55.3900 C.3   331  ALA331      0.1728
     58  C          2.0130   61.7470   56.4880 C.2   331  ALA331      0.2616
     59  O          1.7020   62.6180   57.3150 O.2   331  ALA331     -0.2715
     60  CB         4.4180   61.4620   55.9630 C.3   331  ALA331      0.0334
     61  N          1.3700   60.5870   56.4900 N.am  332  SER332     -0.1950
     62  CA         0.4290   60.2230   57.5390 C.3   332  SER332      0.1924
     63  C          0.7480   58.7740   57.9300 C.2   332  SER332      0.2314
     64  O          1.3450   58.0250   57.1640 O.2   332  SER332     -0.2863
     65  CB        -0.9740   60.4530   57.1110 C.3   332  SER332      0.2116
     66  OG        -1.7260   59.8870   58.0870 O.3   332  SER332     -0.2180
@<TRIPOS>BOND
     1    50    51    1
     2    36    33    1
     3    33    34    1
     4    33    32    1
     5    37    34   am
     6    37    38    1
     7    51    54    1
     8    51    52    1
     9    34    35    2
    10    38    39    1
    11    54    55    1
    12    53    52    2
    13    52    56   am
    14    44    43    2
    15    56    57    1
    16    39    41   am
    17    39    40    2
    18    41    42    1
    19    57    60    1
    20    57    58    1
    21    43    42    1
    22    42    45    1
    23    58    61   am
    24    58    59    2
    25    61    62    1
    26    65    62    1
    27    65    66    1
    28    64    63    2
    29    45    46    1
    30    62    63    1
    31    46    47    1
    32    47    48    1
    33    48    49    1
    34    22    20    1
    35    21    20    1
    36    20    19    1
    37    27    28    1
    38    27    24    1
    39    26    25    2
    40    19    16    1
    41    23    24    1
    42    23    17   am
    43    11    10    2
    44    28    29    1
    45    24    25    1
    46    16    17    1
    47    16    15    1
    48    17    18    2
    49    10    15   am
    50    10     9    1
    51    29    30    1
    52     7     5    1
    53     6     5    1
    54    12     9    1
    55    12    13    1
    56     5     2    1
    57     9     8    1
    58    30    31    1
    59    13    14    1
    60     8    14    1
    61     2     3    1
    62     2     1    1
    63     4     3    2
