@<TRIPOS>MOLECULE
tmp/1qpcA00.pdb
 128 118 0 0 0
SMALL
GASTEIGER

@<TRIPOS>ATOM
      1  N         30.5670   35.3780   89.3000 N.3    21  LEU21      -0.1231
      2  CA        30.7230   36.4090   88.2950 C.3    21  LEU21       0.1693
      3  C         30.5240   37.7970   88.8740 C.2    21  LEU21       0.2593
      4  O         31.0430   38.7670   88.3200 O.2    21  LEU21      -0.2718
      5  CB        29.7190   36.1950   87.1570 C.3    21  LEU21       0.0284
      6  CG        29.8100   34.8030   86.5650 C.3    21  LEU21       0.0019
      7  CD1       28.7870   34.6820   85.4870 C.3    21  LEU21       0.0001
      8  CD2       31.1980   34.5540   86.0080 C.3    21  LEU21       0.0001
      9  N         29.7360   37.8840   89.9390 N.am   22  GLY22      -0.1942
     10  CA        29.4580   39.1850   90.5210 C.3    22  GLY22       0.2014
     11  C         28.9020   39.0560   91.9000 C.2    22  GLY22       0.2638
     12  O         28.3560   38.0300   92.2920 O.2    22  GLY22      -0.2714
     13  N         29.0860   40.1200   92.6720 N.am   23  ALA23      -0.1977
     14  CA        28.5960   40.1720   94.0400 C.3    23  ALA23       0.1597
     15  C         28.1790   41.5930   94.3320 C.2    23  ALA23       0.2287
     16  O         28.8820   42.5580   94.0050 O.2    23  ALA23      -0.2864
     17  CB        29.6480   39.7310   95.0350 C.3    23  ALA23       0.0319
     18  N         25.9390   36.4800   91.5620 N.3    29  VAL29      -0.1245
     19  CA        25.6570   35.8630   90.2620 C.3    29  VAL29       0.1561
     20  C         26.7950   34.8880   90.0380 C.2    29  VAL29       0.2260
     21  O         27.9580   35.2720   90.1430 O.2    29  VAL29      -0.2867
     22  CB        25.6500   36.8670   89.1080 C.3    29  VAL29       0.0252
     23  CG1       25.4140   36.1150   87.7540 C.3    29  VAL29       0.0019
     24  CG2       24.5000   37.8720   89.3470 C.3    29  VAL29       0.0019
     25  N         23.4430   30.4260   84.4500 N.3    41  ALA41      -0.1245
     26  CA        23.7880   31.5270   85.3380 C.3    41  ALA41       0.1562
     27  C         22.8140   31.4230   86.5400 C.2    41  ALA41       0.2260
     28  O         21.6080   31.1420   86.3810 O.2    41  ALA41      -0.2867
     29  CB        23.5740   32.8530   84.6480 C.3    41  ALA41       0.0290
     30  N         21.4510   33.4950   89.9560 N.3    43  LYS43      -0.1245
     31  CA        21.4410   34.7130   90.7660 C.3    43  LYS43       0.1561
     32  C         20.8710   34.3300   92.1240 C.2    43  LYS43       0.2260
     33  O         19.7810   33.7690   92.2000 O.2    43  LYS43      -0.2867
     34  CB        20.6130   35.8210   90.0940 C.3    43  LYS43       0.0271
     35  CG        20.4440   36.9810   91.0300 C.3    43  LYS43       0.0035
     36  CD        20.2410   38.2600   90.2830 C.3    43  LYS43       0.0206
     37  CE        18.9900   38.2290   89.4710 C.3    43  LYS43       0.1093
     38  NZ        18.6460   39.6340   89.0430 N.3    43  LYS43      -0.1314
     39  N         16.9770   36.8180   77.3520 N.3    71  VAL71      -0.1245
     40  CA        17.6100   35.8080   78.2040 C.3    71  VAL71       0.1561
     41  C         16.4690   34.9800   78.8180 C.2    71  VAL71       0.2260
     42  O         15.5620   35.5240   79.4330 O.2    71  VAL71      -0.2867
     43  CB        18.4860   36.5030   79.2570 C.3    71  VAL71       0.0252
     44  CG1       18.9410   35.4660   80.2950 C.3    71  VAL71       0.0019
     45  CG2       19.7090   37.0600   78.5720 C.3    71  VAL71       0.0019
     46  N         19.1290   31.1760   84.9700 N.3    86  THR86      -0.1203
     47  CA        18.8240   31.5750   83.6150 C.3    86  THR86       0.1994
     48  C         19.7920   31.0520   82.5800 C.2    86  THR86       0.2618
     49  O         20.8600   30.5010   82.9060 O.2    86  THR86      -0.2717
     50  CB        18.8290   33.1310   83.4740 C.3    86  THR86       0.1784
     51  OG1       20.1370   33.6490   83.7930 O.3    86  THR86      -0.2211
     52  CG2       17.8970   33.7310   84.4910 C.3    86  THR86       0.0376
     53  N         19.4450   31.3140   81.3420 N.am   87  GLU87      -0.1965
     54  CA        20.2950   30.9650   80.1890 C.3    87  GLU87       0.1733
     55  C         21.6900   31.6310   80.3550 C.2    87  GLU87       0.2616
     56  O         21.7940   32.8370   80.6680 O.2    87  GLU87      -0.2715
     57  CB        19.6180   31.5460   78.9600 C.3    87  GLU87       0.0429
     58  CG        20.3070   31.3270   77.6430 C.3    87  GLU87       0.1163
     59  CD        19.4590   31.8300   76.4750 C.2    87  GLU87       0.3649
     60  OE1       18.4990   32.6090   76.7030 O.co2  87  GLU87      -0.2457
     61  OE2       19.7150   31.4350   75.3230 O.co2  87  GLU87      -0.2457
     62  N         22.7540   30.8660   80.1330 N.am   88  TYR88      -0.1960
     63  CA        24.1140   31.4110   80.2720 C.3    88  TYR88       0.1771
     64  C         24.5540   32.0410   78.9500 C.2    88  TYR88       0.2619
     65  O         24.3670   31.4820   77.8350 O.2    88  TYR88      -0.2715
     66  CB        25.0780   30.2680   80.6230 C.3    88  TYR88       0.0574
     67  CG        26.4520   30.7640   81.0100 C.ar   88  TYR88      -0.0198
     68  CD1       26.6430   31.3540   82.2580 C.ar   88  TYR88      -0.0009
     69  CD2       27.5090   30.6720   80.1430 C.ar   88  TYR88      -0.0009
     70  CE1       27.8620   31.8660   82.6360 C.ar   88  TYR88       0.0417
     71  CE2       28.7660   31.2080   80.5180 C.ar   88  TYR88       0.0417
     72  CZ        28.9090   31.7870   81.7560 C.ar   88  TYR88       0.1957
     73  OH        30.1430   32.3020   82.1790 O.3    88  TYR88      -0.2866
     74  N         25.1650   33.2330   79.0800 N.am   89  MET89      -0.1977
     75  CA        25.6120   33.9750   77.9040 C.3    89  MET89       0.1605
     76  C         27.1290   34.1070   78.0640 C.2    89  MET89       0.2287
     77  O         27.6150   34.8580   78.8970 O.2    89  MET89      -0.2864
     78  CB        24.8880   35.3320   77.8890 C.3    89  MET89       0.0413
     79  CG        23.3440   35.1950   77.7050 C.3    89  MET89       0.0598
     80  SD        22.8490   34.4710   76.1730 S.3    89  MET89      -0.1393
     81  CE        23.0620   35.8370   75.0410 C.3    89  MET89       0.0692
     82  N         29.0950   37.5280   78.3440 N.3    92  GLY92      -0.1210
     83  CA        28.7220   38.4950   79.3670 C.3    92  GLY92       0.1956
     84  C         28.0080   39.7300   78.8490 C.2    92  GLY92       0.2612
     85  O         27.3720   39.6900   77.7990 O.2    92  GLY92      -0.2717
     86  N         28.1430   40.8350   79.5740 N.am   93  SER93      -0.1952
     87  CA        27.4230   42.0540   79.1820 C.3    93  SER93       0.1924
     88  C         28.0910   42.7100   77.9940 C.2    93  SER93       0.2314
     89  O         29.3040   42.7340   77.8770 O.2    93  SER93      -0.2863
     90  CB        27.3330   43.0440   80.3610 C.3    93  SER93       0.2116
     91  OG        26.9460   42.3920   81.5520 O.3    93  SER93      -0.2180
     92  N         30.7980   45.3230   78.5520 N.3    96  ASP96      -0.1239
     93  CA        32.1250   44.7760   78.8530 C.3    96  ASP96       0.1674
     94  C         32.7400   44.0910   77.6260 C.2    96  ASP96       0.2266
     95  O         33.9330   44.2210   77.3240 O.2    96  ASP96      -0.2867
     96  CB        32.0330   43.7650   79.9920 C.3    96  ASP96       0.1410
     97  CG        31.6310   44.3770   81.3090 C.2    96  ASP96       0.3668
     98  OD1       32.0060   45.5320   81.6140 O.co2  96  ASP96      -0.2456
     99  OD2       30.9400   43.6880   82.0950 O.co2  96  ASP96      -0.2456
    100  N         24.7950   47.6120   79.5180 N.3   138  ALA138     -0.1231
    101  CA        25.0950   46.7340   80.6470 C.3   138  ALA138      0.1694
    102  C         24.0600   45.6150   80.7600 C.2   138  ALA138      0.2592
    103  O         24.3550   44.5800   81.3560 O.2   138  ALA138     -0.2718
    104  CB        25.1290   47.4900   81.9390 C.3   138  ALA138      0.0304
    105  N         22.8790   45.8390   80.1930 N.am  139  ASN139     -0.1974
    106  CA        21.7730   44.8770   80.3210 C.3   139  ASN139      0.1688
    107  C         21.4650   44.1270   79.0630 C.2   139  ASN139      0.2292
    108  O         20.3690   43.6010   78.8780 O.2   139  ASN139     -0.2864
    109  CB        20.5280   45.5450   80.9110 C.3   139  ASN139      0.1181
    110  CG        20.7360   45.9490   82.3730 C.2   139  ASN139      0.2629
    111  OD1       21.5100   45.2920   83.1170 O.2   139  ASN139     -0.2716
    112  ND2       20.1000   47.0370   82.7980 N.am  139  ASN139     -0.0877
    113  N         23.1270   40.9350   77.0390 N.3   141  LEU141     -0.1245
    114  CA        24.1460   39.8640   77.1810 C.3   141  LEU141      0.1561
    115  C         24.5270   39.3310   75.8040 C.2   141  LEU141      0.2260
    116  O         23.7420   39.3450   74.8330 O.2   141  LEU141     -0.2867
    117  CB        23.6030   38.7610   78.0960 C.3   141  LEU141      0.0270
    118  CG        23.4820   39.1160   79.5610 C.3   141  LEU141      0.0019
    119  CD1       22.8800   38.0010   80.3670 C.3   141  LEU141      0.0001
    120  CD2       24.8980   39.4560   80.1680 C.3   141  LEU141      0.0001
    121  N         18.0870   41.3720   82.3940 N.3   152  ASP152     -0.1239
    122  CA        17.7630   42.1600   83.5730 C.3   152  ASP152      0.1674
    123  C         16.3650   42.7380   83.5230 C.2   152  ASP152      0.2266
    124  O         16.1400   43.9270   83.2510 O.2   152  ASP152     -0.2867
    125  CB        18.7970   43.2620   83.8520 C.3   152  ASP152      0.1410
    126  CG        18.6200   43.8680   85.2560 C.2   152  ASP152      0.3668
    127  OD1       17.5850   43.5900   85.9440 O.co2 152  ASP152     -0.2456
    128  OD2       19.5630   44.5630   85.7250 O.co2 152  ASP152     -0.2456
@<TRIPOS>BOND
     1   116   115    2
     2    81    80    1
     3    61    59   ar
     4   115   114    1
     5    80    79    1
     6    59    60   ar
     7    59    58    1
     8   113   114    1
     9   114   117    1
    10    95    94    2
    11    39    40    1
    12    94    93    1
    13    58    57    1
    14    79    78    1
    15    85    84    2
    16    65    64    2
    17    89    88    2
    18    78    75    1
    19    75    76    1
    20    75    74    1
    21    88    87    1
    22    76    77    2
    23   117   118    1
    24    40    41    1
    25    40    43    1
    26    82    83    1
    27    92    93    1
    28    45    43    1
    29    41    42    2
    30    84    83    1
    31    84    86   am
    32    93    96    1
    33   108   107    2
    34    64    74   am
    35    64    63    1
    36    57    54    1
    37   107   106    1
    38    87    86    1
    39    87    90    1
    40    43    44    1
    41   100   101    1
    42   118   120    1
    43   118   119    1
    44    96    97    1
    45    62    63    1
    46    62    55   am
    47    69    71   ar
    48    69    67   ar
    49    54    55    1
    50    54    53    1
    51   105   106    1
    52   105   102   am
    53    63    66    1
    54   106   109    1
    55    55    56    2
    56    90    91    1
    57    71    72   ar
    58    66    67    1
    59   101   102    1
    60   101   104    1
    61   102   103    2
    62   109   110    1
    63    67    68   ar
    64    97    98   ar
    65    97    99   ar
    66    53    48   am
    67    72    73    1
    68    72    70   ar
    69    68    70   ar
    70   110   112   am
    71   110   111    2
    72   121   122    1
    73    48    49    2
    74    48    47    1
    75   124   123    2
    76    50    47    1
    77    50    51    1
    78    50    52    1
    79   123   122    1
    80   122   125    1
    81    47    46    1
    82   125   126    1
    83    25    26    1
    84    29    26    1
    85   126   128   ar
    86   126   127   ar
    87    26    27    1
    88     7     6    1
    89     8     6    1
    90    28    27    2
    91     6     5    1
    92     5     2    1
    93    23    22    1
    94     2     3    1
    95     2     1    1
    96     4     3    2
    97     3     9   am
    98    38    37    1
    99    22    24    1
   100    22    19    1
   101    37    36    1
   102     9    10    1
   103    30    31    1
   104    20    21    2
   105    20    19    1
   106    34    31    1
   107    34    35    1
   108    19    18    1
   109    36    35    1
   110    10    11    1
   111    31    32    1
   112    11    12    2
   113    11    13   am
   114    32    33    2
   115    13    14    1
   116    16    15    2
   117    14    15    1
   118    14    17    1
