@<TRIPOS>MOLECULE
tmp/1qpeA00.pdb
 145 132 0 0 0
SMALL
GASTEIGER

@<TRIPOS>ATOM
      1  N         30.5250   35.3640   89.2030 N.3    21  LEU21      -0.1231
      2  CA        30.7870   36.3100   88.1360 C.3    21  LEU21       0.1693
      3  C         30.5400   37.7260   88.6110 C.2    21  LEU21       0.2592
      4  O         31.0440   38.6810   88.0200 O.2    21  LEU21      -0.2718
      5  CB        29.8630   36.0270   86.9400 C.3    21  LEU21       0.0284
      6  CG        29.8780   34.6080   86.3920 C.3    21  LEU21       0.0019
      7  CD1       28.8040   34.4290   85.3560 C.3    21  LEU21       0.0001
      8  CD2       31.2540   34.3020   85.7970 C.3    21  LEU21       0.0001
      9  N         29.7090   37.8510   89.6370 N.am   22  GLY22      -0.1957
     10  CA        29.3540   39.1540   90.1520 C.3    22  GLY22       0.1869
     11  C         28.7560   39.0620   91.5310 C.2    22  GLY22       0.2309
     12  O         28.1940   38.0300   91.9320 O.2    22  GLY22      -0.2863
     13  N         25.8740   36.5460   91.3150 N.3    29  VAL29      -0.1245
     14  CA        25.5640   35.9180   90.0440 C.3    29  VAL29       0.1561
     15  C         26.7180   34.9520   89.7840 C.2    29  VAL29       0.2260
     16  O         27.8800   35.3540   89.8070 O.2    29  VAL29      -0.2867
     17  CB        25.4610   36.9440   88.9100 C.3    29  VAL29       0.0252
     18  CG1       25.1840   36.2030   87.5700 C.3    29  VAL29       0.0019
     19  CG2       24.3120   37.9590   89.2390 C.3    29  VAL29       0.0019
     20  N         23.3450   30.3740   84.3920 N.3    41  ALA41      -0.1245
     21  CA        23.7150   31.5210   85.2330 C.3    41  ALA41       0.1562
     22  C         22.7810   31.3900   86.4450 C.2    41  ALA41       0.2260
     23  O         21.6050   31.0150   86.3060 O.2    41  ALA41      -0.2867
     24  CB        23.4300   32.8420   84.4900 C.3    41  ALA41       0.0290
     25  N         21.4540   33.5390   89.8520 N.3    43  LYS43      -0.1245
     26  CA        21.4130   34.8060   90.6120 C.3    43  LYS43       0.1561
     27  C         20.8440   34.4220   91.9520 C.2    43  LYS43       0.2260
     28  O         19.7400   33.8570   92.0130 O.2    43  LYS43      -0.2867
     29  CB        20.5080   35.8320   89.9220 C.3    43  LYS43       0.0271
     30  CG        20.4940   37.2040   90.6020 C.3    43  LYS43       0.0035
     31  CD        19.9820   38.2420   89.6070 C.3    43  LYS43       0.0206
     32  CE        19.3530   39.4340   90.3050 C.3    43  LYS43       0.1093
     33  NZ        18.8720   40.3960   89.2740 N.3    43  LYS43      -0.1314
     34  N         11.2140   39.3720   89.4350 N.3    58  GLU58      -0.1245
     35  CA        11.9900   39.3850   88.1970 C.3    58  GLU58       0.1567
     36  C         11.7290   38.0720   87.4400 C.2    58  GLU58       0.2260
     37  O         11.4120   38.0690   86.2610 O.2    58  GLU58      -0.2867
     38  CB        13.4870   39.4550   88.5260 C.3    58  GLU58       0.0388
     39  CG        14.4240   39.4290   87.3050 C.3    58  GLU58       0.1160
     40  CD        15.9090   39.7630   87.6530 C.2    58  GLU58       0.3649
     41  OE1       16.2770   39.8360   88.8290 O.co2  58  GLU58      -0.2457
     42  OE2       16.7320   39.9330   86.7340 O.co2  58  GLU58      -0.2457
     43  N          9.9390   37.1840   83.7270 N.3    62  MET62      -0.1245
     44  CA        10.5900   36.3830   82.6740 C.3    62  MET62       0.1570
     45  C          9.7160   35.2270   82.1810 C.2    62  MET62       0.2261
     46  O          9.8060   34.8470   81.0230 O.2    62  MET62      -0.2867
     47  CB        11.9630   35.9010   83.1230 C.3    62  MET62       0.0387
     48  CG        12.9060   37.0530   83.4250 C.3    62  MET62       0.0595
     49  SD        14.4410   36.5500   84.1680 S.3    62  MET62      -0.1393
     50  CE        15.2020   35.8620   82.7780 C.3    62  MET62       0.0692
     51  N         16.9630   36.8410   77.4190 N.3    71  VAL71      -0.1245
     52  CA        17.6200   35.8580   78.2480 C.3    71  VAL71       0.1561
     53  C         16.4980   35.0020   78.8150 C.2    71  VAL71       0.2260
     54  O         15.5090   35.5170   79.3640 O.2    71  VAL71      -0.2867
     55  CB        18.5410   36.5310   79.2890 C.3    71  VAL71       0.0252
     56  CG1       19.1080   35.5120   80.2830 C.3    71  VAL71       0.0019
     57  CG2       19.7170   37.1820   78.5200 C.3    71  VAL71       0.0019
     58  N         17.4780   32.2550   91.0550 N.3    84  ILE84      -0.1245
     59  CA        16.8020   32.4210   89.7570 C.3    84  ILE84       0.1561
     60  C         17.8550   31.8670   88.8000 C.2    84  ILE84       0.2260
     61  O         19.0030   32.3100   88.7920 O.2    84  ILE84      -0.2867
     62  CB        16.5150   33.9020   89.3880 C.3    84  ILE84       0.0252
     63  CG1       15.5260   34.5050   90.3790 C.3    84  ILE84       0.0019
     64  CG2       15.9190   34.0090   87.9750 C.3    84  ILE84       0.0019
     65  CD1       15.3140   36.0340   90.1770 C.3    84  ILE84       0.0001
     66  N         19.0260   30.9860   84.9160 N.3    86  THR86      -0.1203
     67  CA        18.7070   31.3770   83.5470 C.3    86  THR86       0.1994
     68  C         19.7230   30.8540   82.5510 C.2    86  THR86       0.2618
     69  O         20.7550   30.2830   82.9190 O.2    86  THR86      -0.2717
     70  CB        18.7540   32.9500   83.3440 C.3    86  THR86       0.1784
     71  OG1       20.1280   33.4030   83.4140 O.3    86  THR86      -0.2211
     72  CG2       17.9350   33.7240   84.3920 C.3    86  THR86       0.0376
     73  N         19.4070   31.1170   81.2890 N.am   87  GLU87      -0.1965
     74  CA        20.2660   30.8510   80.1430 C.3    87  GLU87       0.1733
     75  C         21.6240   31.5650   80.4270 C.2    87  GLU87       0.2616
     76  O         21.6660   32.6950   80.9590 O.2    87  GLU87      -0.2715
     77  CB        19.5910   31.5210   78.9430 C.3    87  GLU87       0.0429
     78  CG        20.2980   31.4310   77.5990 C.3    87  GLU87       0.1163
     79  CD        19.3900   31.8580   76.4530 C.2    87  GLU87       0.3649
     80  OE1       18.4670   32.6500   76.7130 O.co2  87  GLU87      -0.2457
     81  OE2       19.6070   31.4470   75.2770 O.co2  87  GLU87      -0.2457
     82  N         22.7190   30.8840   80.1320 N.am   88  TYR88      -0.1960
     83  CA        24.0520   31.4400   80.3720 C.3    88  TYR88       0.1771
     84  C         24.5670   32.1320   79.1050 C.2    88  TYR88       0.2619
     85  O         24.4900   31.5750   78.0080 O.2    88  TYR88      -0.2715
     86  CB        25.0110   30.3450   80.8280 C.3    88  TYR88       0.0574
     87  CG        26.4010   30.8710   81.1220 C.ar   88  TYR88      -0.0198
     88  CD1       26.6200   31.6650   82.2240 C.ar   88  TYR88      -0.0009
     89  CD2       27.4900   30.5610   80.2990 C.ar   88  TYR88      -0.0009
     90  CE1       27.8600   32.1370   82.5210 C.ar   88  TYR88       0.0417
     91  CE2       28.7680   31.0480   80.5970 C.ar   88  TYR88       0.0417
     92  CZ        28.9300   31.8290   81.7090 C.ar   88  TYR88       0.1957
     93  OH        30.1570   32.3140   82.0750 O.3    88  TYR88      -0.2866
     94  N         24.9770   33.3920   79.2340 N.am   89  MET89      -0.1977
     95  CA        25.4540   34.1510   78.0620 C.3    89  MET89       0.1605
     96  C         26.9720   34.2530   78.2490 C.2    89  MET89       0.2287
     97  O         27.4560   35.0220   79.0970 O.2    89  MET89      -0.2864
     98  CB        24.7800   35.5290   78.0440 C.3    89  MET89       0.0413
     99  CG        23.2230   35.4080   77.9500 C.3    89  MET89       0.0598
    100  SD        22.7470   34.6320   76.3970 S.3    89  MET89      -0.1393
    101  CE        23.2610   35.8310   75.2330 C.3    89  MET89       0.0692
    102  N         29.0220   37.5340   78.4080 N.3    92  GLY92      -0.1210
    103  CA        28.5350   38.4190   79.4350 C.3    92  GLY92       0.1956
    104  C         27.8990   39.7260   78.9710 C.2    92  GLY92       0.2612
    105  O         27.2500   39.7660   77.9240 O.2    92  GLY92      -0.2717
    106  N         28.1250   40.7900   79.7240 N.am   93  SER93      -0.1952
    107  CA        27.5400   42.0830   79.3890 C.3    93  SER93       0.1924
    108  C         28.1210   42.7870   78.1450 C.2    93  SER93       0.2314
    109  O         29.3370   42.8840   77.9690 O.2    93  SER93      -0.2863
    110  CB        27.6320   42.9540   80.6320 C.3    93  SER93       0.2116
    111  OG        27.1580   44.2290   80.4150 O.3    93  SER93      -0.2180
    112  N         30.6770   45.3900   78.7190 N.3    96  ASP96      -0.1239
    113  CA        32.0210   44.8560   79.0250 C.3    96  ASP96       0.1674
    114  C         32.6350   44.1620   77.8110 C.2    96  ASP96       0.2266
    115  O         33.8260   44.3290   77.5030 O.2    96  ASP96      -0.2867
    116  CB        32.0020   43.8400   80.1710 C.3    96  ASP96       0.1410
    117  CG        31.5390   44.4080   81.4490 C.2    96  ASP96       0.3668
    118  OD1       31.8580   45.5670   81.7390 O.co2  96  ASP96      -0.2456
    119  OD2       30.8640   43.6780   82.2100 O.co2  96  ASP96      -0.2456
    120  N         24.6750   47.7300   79.4380 N.3   138  ALA138     -0.1245
    121  CA        24.9930   46.8930   80.5720 C.3   138  ALA138      0.1562
    122  C         23.9750   45.7470   80.6690 C.2   138  ALA138      0.2260
    123  O         24.2860   44.6380   81.1790 O.2   138  ALA138     -0.2867
    124  CB        24.9260   47.6980   81.8560 C.3   138  ALA138      0.0290
    125  N         23.0430   41.0450   77.0240 N.3   141  LEU141     -0.1245
    126  CA        24.0620   39.9630   77.2320 C.3   141  LEU141      0.1561
    127  C         24.4790   39.4310   75.8800 C.2   141  LEU141      0.2260
    128  O         23.7090   39.5070   74.9340 O.2   141  LEU141     -0.2867
    129  CB        23.5680   38.8330   78.1480 C.3   141  LEU141      0.0270
    130  CG        23.2340   39.2590   79.5820 C.3   141  LEU141      0.0019
    131  CD1       22.7460   38.0670   80.4590 C.3   141  LEU141      0.0001
    132  CD2       24.4660   40.0100   80.2340 C.3   141  LEU141      0.0001
    133  N         18.2280   41.4930   78.7840 N.3   151  ALA151     -0.1231
    134  CA        18.3260   40.9270   80.1130 C.3   151  ALA151      0.1694
    135  C         17.9060   41.9360   81.1820 C.2   151  ALA151      0.2592
    136  O         17.5380   43.0670   80.8580 O.2   151  ALA151     -0.2718
    137  CB        19.7730   40.4920   80.3680 C.3   151  ALA151      0.0304
    138  N         17.9650   41.5250   82.4570 N.am  152  ASP152     -0.1974
    139  CA        17.6560   42.3650   83.6230 C.3   152  ASP152      0.1709
    140  C         16.2740   42.9990   83.5780 C.2   152  ASP152      0.2293
    141  O         16.1140   44.2170   83.4930 O.2   152  ASP152     -0.2864
    142  CB        18.7280   43.4450   83.8490 C.3   152  ASP152      0.1436
    143  CG        19.8080   43.0000   84.8320 C.2   152  ASP152      0.3671
    144  OD1       20.3260   41.8750   84.7110 O.co2 152  ASP152     -0.2456
    145  OD2       20.1010   43.7720   85.7810 O.co2 152  ASP152     -0.2456
@<TRIPOS>BOND
     1   128   127    2
     2   101   100    1
     3    81    79   ar
     4   127   126    1
     5   100    99    1
     6    79    80   ar
     7    79    78    1
     8   125   126    1
     9   126   129    1
    10    51    52    1
    11   115   114    2
    12    78    77    1
    13   114   113    1
    14   105   104    2
    15    99    98    1
    16   109   108    2
    17    85    84    2
    18    98    95    1
    19    95    96    1
    20    95    94    1
    21   108   107    1
    22   129   130    1
    23    52    53    1
    24    52    55    1
    25    96    97    2
    26   102   103    1
    27    57    55    1
    28   112   113    1
    29   133   134    1
    30    53    54    2
    31    77    74    1
    32   104   103    1
    33   104   106   am
    34   113   116    1
    35    84    94   am
    36    84    83    1
    37    55    56    1
    38   107   106    1
    39   107   110    1
    40   120   121    1
    41   130   132    1
    42   130   131    1
    43   134   137    1
    44   134   135    1
    45    82    83    1
    46    82    75   am
    47    74    75    1
    48    74    73    1
    49   116   117    1
    50    89    91   ar
    51    89    87   ar
    52    83    86    1
    53   111   110    1
    54    75    76    2
    55   121   122    1
    56   121   124    1
    57    91    92   ar
    58   122   123    2
    59    86    87    1
    60   136   135    2
    61    46    45    2
    62    87    88   ar
    63   135   138   am
    64    73    68   am
    65   117   118   ar
    66   117   119   ar
    67    92    93    1
    68    92    90   ar
    69    45    44    1
    70    88    90   ar
    71   138   139    1
    72    68    69    2
    73    68    67    1
    74    44    47    1
    75    44    43    1
    76    50    49    1
    77    47    48    1
    78    70    71    1
    79    70    67    1
    80    70    72    1
    81    48    49    1
    82   141   140    2
    83    67    66    1
    84   140   139    1
    85   139   142    1
    86   142   143    1
    87    20    21    1
    88    24    21    1
    89   144   143   ar
    90   143   145   ar
    91    21    22    1
    92     7     6    1
    93     8     6    1
    94    37    36    2
    95    23    22    2
    96     6     5    1
    97    42    40   ar
    98     5     2    1
    99    39    40    1
   100    39    38    1
   101    36    35    1
   102    18    17    1
   103    40    41   ar
   104    64    62    1
   105     4     3    2
   106     2     3    1
   107     2     1    1
   108    35    38    1
   109    35    34    1
   110     3     9   am
   111    61    60    2
   112    60    59    1
   113    17    19    1
   114    17    14    1
   115    33    32    1
   116    62    59    1
   117    62    63    1
   118    31    32    1
   119    31    30    1
   120     9    10    1
   121    59    58    1
   122    15    16    2
   123    15    14    1
   124    25    26    1
   125    29    30    1
   126    29    26    1
   127    14    13    1
   128    10    11    1
   129    65    63    1
   130    26    27    1
   131    11    12    2
   132    27    28    2
