@<TRIPOS>MOLECULE
tmp/1qpfB00.pdb
 145 143 0 0 0
SMALL
GASTEIGER

@<TRIPOS>ATOM
      1  N         17.2670   40.8580  140.1220 N.3    26  TYR26      -0.1241
      2  CA        16.8050   39.7910  139.2510 C.3    26  TYR26       0.1605
      3  C         15.9990   38.7380  139.9710 C.2    26  TYR26       0.2264
      4  O         15.9650   38.6860  141.2010 O.2    26  TYR26      -0.2867
      5  CB        18.0010   39.1130  138.5720 C.3    26  TYR26       0.0534
      6  CG        18.8650   38.2670  139.5020 C.ar   26  TYR26      -0.0201
      7  CD1       19.9240   38.8350  140.2070 C.ar   26  TYR26      -0.0009
      8  CD2       18.6380   36.8920  139.6500 C.ar   26  TYR26      -0.0009
      9  CE1       20.7380   38.0580  141.0350 C.ar   26  TYR26       0.0417
     10  CE2       19.4470   36.1070  140.4730 C.ar   26  TYR26       0.0417
     11  CZ        20.4950   36.6960  141.1600 C.ar   26  TYR26       0.1957
     12  OH        21.3240   35.9340  141.9530 O.3    26  TYR26      -0.2866
     13  N         13.9320   29.7780  140.8740 N.3    36  PHE36      -0.1227
     14  CA        15.0740   29.1350  141.5210 C.3    36  PHE36       0.1736
     15  C         15.9460   30.0610  142.3670 C.2    36  PHE36       0.2595
     16  O         16.6580   29.5980  143.2550 O.2    36  PHE36      -0.2718
     17  CB        15.9410   28.3730  140.5000 C.3    36  PHE36       0.0547
     18  CG        16.6170   29.2500  139.4700 C.ar   36  PHE36      -0.0202
     19  CD1       17.7400   30.0110  139.8000 C.ar   36  PHE36      -0.0042
     20  CD2       16.1540   29.2830  138.1560 C.ar   36  PHE36      -0.0042
     21  CE1       18.3880   30.7900  138.8370 C.ar   36  PHE36      -0.0003
     22  CE2       16.7960   30.0590  137.1870 C.ar   36  PHE36      -0.0003
     23  CZ        17.9130   30.8110  137.5280 C.ar   36  PHE36      -0.0000
     24  N         15.8810   31.3650  142.1110 N.am   37  ASP37      -0.1974
     25  CA        16.6950   32.3310  142.8490 C.3    37  ASP37       0.1709
     26  C         16.1540   33.7440  142.6320 C.2    37  ASP37       0.2293
     27  O         15.5020   34.0120  141.6250 O.2    37  ASP37      -0.2864
     28  CB        18.1510   32.2280  142.3750 C.3    37  ASP37       0.1436
     29  CG        19.0930   33.1300  143.1410 C.2    37  ASP37       0.3671
     30  OD1       18.9320   33.2930  144.3670 O.co2  37  ASP37      -0.2456
     31  OD2       20.0160   33.6690  142.5050 O.co2  37  ASP37      -0.2456
     32  N         16.5150   38.5780  149.0810 N.3    42  ARG42      -0.1245
     33  CA        17.5720   38.8270  150.0550 C.3    42  ARG42       0.1563
     34  C         17.8930   40.3070  150.2760 C.2    42  ARG42       0.2260
     35  O         18.7870   40.6450  151.0560 O.2    42  ARG42      -0.2867
     36  CB        18.8370   38.0280  149.7250 C.3    42  ARG42       0.0307
     37  CG        19.4190   38.2550  148.3520 C.3    42  ARG42       0.0489
     38  CD        20.7050   37.4600  148.1790 C.3    42  ARG42       0.2205
     39  NE        21.1240   37.4130  146.7830 N.pl3  42  ARG42      -0.0865
     40  CZ        20.8630   36.4040  145.9570 C.cat  42  ARG42       0.5346
     41  NH1       20.1910   35.3430  146.3830 N.pl3  42  ARG42       0.1354
     42  NH2       21.2320   36.4770  144.6880 N.pl3  42  ARG42       0.1354
     43  N         22.7510   42.6750  142.9230 N.3    46  PHE46      -0.1241
     44  CA        23.8490   41.8910  142.3960 C.3    46  PHE46       0.1605
     45  C         24.6870   42.8280  141.5410 C.2    46  PHE46       0.2264
     46  O         24.1560   43.7410  140.9070 O.2    46  PHE46      -0.2867
     47  CB        23.3020   40.7280  141.5560 C.3    46  PHE46       0.0534
     48  CG        24.3590   39.9360  140.8450 C.ar   46  PHE46      -0.0203
     49  CD1       25.1460   39.0190  141.5350 C.ar   46  PHE46      -0.0042
     50  CD2       24.5860   40.1250  139.4850 C.ar   46  PHE46      -0.0042
     51  CE1       26.1490   38.3050  140.8790 C.ar   46  PHE46      -0.0003
     52  CE2       25.5810   39.4180  138.8240 C.ar   46  PHE46      -0.0003
     53  CZ        26.3660   38.5070  139.5210 C.ar   46  PHE46      -0.0000
     54  N         32.2420   37.5740  133.8480 N.3    54  GLU54      -0.1231
     55  CA        31.8980   37.1650  135.2050 C.3    54  GLU54       0.1699
     56  C         30.5800   36.4050  135.2480 C.2    54  GLU54       0.2592
     57  O         30.4070   35.5030  136.0650 O.2    54  GLU54      -0.2718
     58  CB        31.7630   38.3800  136.1200 C.3    54  GLU54       0.0402
     59  CG        33.0180   39.2040  136.3130 C.3    54  GLU54       0.1161
     60  CD        32.7960   40.3800  137.2500 C.2    54  GLU54       0.3649
     61  OE1       31.7820   40.3930  137.9820 O.co2  54  GLU54      -0.2457
     62  OE2       33.6440   41.2920  137.2620 O.co2  54  GLU54      -0.2457
     63  N         29.6360   36.8270  134.4090 N.am   55  VAL55      -0.1966
     64  CA        28.3130   36.2150  134.3470 C.3    55  VAL55       0.1727
     65  C         28.1410   35.3780  133.0880 C.2    55  VAL55       0.2616
     66  O         28.9560   35.4470  132.1640 O.2    55  VAL55      -0.2715
     67  CB        27.1980   37.2880  134.3760 C.3    55  VAL55       0.0290
     68  CG1       27.1360   37.9440  135.7390 C.3    55  VAL55       0.0023
     69  CG2       27.4490   38.3340  133.3120 C.3    55  VAL55       0.0023
     70  N         27.0920   34.5660  133.0620 N.am   56  ILE56      -0.1977
     71  CA        26.8090   33.7350  131.9010 C.3    56  ILE56       0.1596
     72  C         26.5610   34.6290  130.6860 C.2    56  ILE56       0.2287
     73  O         26.0800   35.7610  130.8220 O.2    56  ILE56      -0.2864
     74  CB        25.6010   32.8070  132.1390 C.3    56  ILE56       0.0276
     75  CG1       24.3780   33.6080  132.5910 C.3    56  ILE56       0.0022
     76  CG2       25.9590   31.7400  133.1610 C.3    56  ILE56       0.0022
     77  CD1       23.1190   32.7750  132.7420 C.3    56  ILE56       0.0001
     78  N         23.5470   36.9180  130.0830 N.3    59  TRP59      -0.1241
     79  CA        23.5680   38.1250  130.8900 C.3    59  TRP59       0.1605
     80  C         24.4450   39.2040  130.2780 C.2    59  TRP59       0.2264
     81  O         24.0310   40.3580  130.1960 O.2    59  TRP59      -0.2867
     82  CB        24.0240   37.8100  132.3070 C.3    59  TRP59       0.0550
     83  CG        22.8910   37.5150  133.2130 C.ar   59  TRP59       0.0003
     84  CD1       21.9670   36.5220  133.0720 C.ar   59  TRP59       0.0946
     85  CD2       22.5250   38.2420  134.3920 C.ar   59  TRP59       0.0152
     86  NE1       21.0500   36.5880  134.0900 N.ar   59  TRP59      -0.2442
     87  CE2       21.3680   37.6350  134.9150 C.ar   59  TRP59       0.0810
     88  CE3       23.0650   39.3520  135.0560 C.ar   59  TRP59       0.0012
     89  CZ2       20.7390   38.0950  136.0750 C.ar   59  TRP59       0.0191
     90  CZ3       22.4370   39.8080  136.2140 C.ar   59  TRP59       0.0001
     91  CH2       21.2890   39.1800  136.7080 C.ar   59  TRP59       0.0015
     92  N         23.8880   29.6960  128.6320 N.3    81  ALA81      -0.1231
     93  CA        23.7790   29.5960  130.0790 C.3    81  ALA81       0.1694
     94  C         24.6110   28.4450  130.6440 C.2    81  ALA81       0.2592
     95  O         25.8390   28.4590  130.5410 O.2    81  ALA81      -0.2718
     96  CB        22.3130   29.4730  130.4960 C.3    81  ALA81       0.0304
     97  N         23.9490   27.4240  131.1830 N.am   82  TYR82      -0.1976
     98  CA        24.6550   26.3050  131.7960 C.3    82  TYR82       0.1639
     99  C         24.7950   25.0350  130.9600 C.2    82  TYR82       0.2290
    100  O         25.3220   24.0250  131.4290 O.2    82  TYR82      -0.2864
    101  CB        24.0570   26.0240  133.1740 C.3    82  TYR82       0.0560
    102  CG        24.1310   27.2390  134.0750 C.ar   82  TYR82      -0.0198
    103  CD1       25.3250   27.5960  134.7000 C.ar   82  TYR82      -0.0009
    104  CD2       23.0280   28.0700  134.2460 C.ar   82  TYR82      -0.0009
    105  CE1       25.4180   28.7560  135.4630 C.ar   82  TYR82       0.0417
    106  CE2       23.1100   29.2280  135.0040 C.ar   82  TYR82       0.0417
    107  CZ        24.3070   29.5670  135.6070 C.ar   82  TYR82       0.1957
    108  OH        24.3800   30.7250  136.3420 O.3    82  TYR82      -0.2866
    109  N         24.0220   23.2120  136.3250 N.3    87  HIS87      -0.1241
    110  CA        24.7700   23.6070  137.5080 C.3    87  HIS87       0.1621
    111  C         24.2830   22.7810  138.6930 C.2    87  HIS87       0.2264
    112  O         23.1250   22.8920  139.1050 O.2    87  HIS87      -0.2867
    113  CB        24.6320   25.1020  137.7860 C.3    87  HIS87       0.0745
    114  CG        25.7580   25.6620  138.5960 C.ar   87  HIS87       0.0817
    115  ND1       27.0310   25.8120  138.0890 N.ar   87  HIS87      -0.2268
    116  CD2       25.8160   26.0800  139.8830 C.ar   87  HIS87       0.1154
    117  CE1       27.8240   26.2940  139.0300 C.ar   87  HIS87       0.1986
    118  NE2       27.1110   26.4650  140.1260 N.ar   87  HIS87      -0.2212
    119  N         20.9120   22.7510  141.2680 N.3    90  ILE90      -0.1231
    120  CA        20.0440   23.9170  141.1220 C.3    90  ILE90       0.1692
    121  C         19.5030   24.0960  139.7090 C.2    90  ILE90       0.2591
    122  O         18.3020   24.2880  139.5190 O.2    90  ILE90      -0.2718
    123  CB        20.7310   25.2220  141.6270 C.3    90  ILE90       0.0266
    124  CG1       19.7270   26.3810  141.6340 C.3    90  ILE90       0.0019
    125  CG2       21.9670   25.5430  140.7930 C.3    90  ILE90       0.0020
    126  CD1       20.2150   27.6200  142.3640 C.3    90  ILE90       0.0001
    127  N         20.3780   23.9940  138.7160 N.am   91  ILE91      -0.1980
    128  CA        19.9550   24.1500  137.3300 C.3    91  ILE91       0.1595
    129  C         20.0680   22.8120  136.6040 C.2    91  ILE91       0.2287
    130  O         21.1420   22.2040  136.5700 O.2    91  ILE91      -0.2864
    131  CB        20.8140   25.2120  136.5830 C.3    91  ILE91       0.0276
    132  CG1       20.6500   26.5950  137.2250 C.3    91  ILE91       0.0022
    133  CG2       20.4190   25.2770  135.1080 C.3    91  ILE91       0.0022
    134  CD1       19.2870   27.2140  137.0220 C.3    91  ILE91       0.0001
    135  N         14.9790   35.3220  133.1650 N.3    99  PHE99      -0.1241
    136  CA        15.2950   36.2310  134.2570 C.3    99  PHE99       0.1605
    137  C         14.5310   37.5420  134.1730 C.2    99  PHE99       0.2264
    138  O         14.4080   38.1360  133.1010 O.2    99  PHE99      -0.2867
    139  CB        16.7870   36.5720  134.2530 C.3    99  PHE99       0.0534
    140  CG        17.6790   35.4520  134.6950 C.ar   99  PHE99      -0.0203
    141  CD1       18.1220   34.4980  133.7880 C.ar   99  PHE99      -0.0042
    142  CD2       18.1170   35.3810  136.0100 C.ar   99  PHE99      -0.0042
    143  CE1       18.9920   33.4920  134.1870 C.ar   99  PHE99      -0.0003
    144  CE2       18.9860   34.3790  136.4180 C.ar   99  PHE99      -0.0003
    145  CZ        19.4260   33.4320  135.5040 C.ar   99  PHE99      -0.0000
@<TRIPOS>BOND
     1    92    93    1
     2    93    96    1
     3    93    94    1
     4    78    79    1
     5    81    80    2
     6    80    79    1
     7    95    94    2
     8    94    97   am
     9    72    73    2
    10    72    71    1
    11    79    82    1
    12    99   100    2
    13    99    98    1
    14    97    98    1
    15    98   101    1
    16    71    74    1
    17    71    70    1
    18    74    75    1
    19    74    76    1
    20    66    65    2
    21    82    83    1
    22    75    77    1
    23    70    65   am
    24    84    83   ar
    25    84    86   ar
    26    65    64    1
    27   138   137    2
    28   135   136    1
    29   101   102    1
    30    83    85   ar
    31    69    67    1
    32   141   143   ar
    33   141   140   ar
    34    54    55    1
    35   102   104   ar
    36   102   103   ar
    37    86    87   ar
    38   137   136    1
    39   143   145   ar
    40   104   106   ar
    41   139   136    1
    42   139   140    1
    43    64    67    1
    44    64    63    1
    45    67    68    1
    46    85    87   ar
    47    85    88   ar
    48    63    56   am
    49   140   142   ar
    50   103   105   ar
    51    87    89   ar
    52   106   107   ar
    53    88    90   ar
    54   133   131    1
    55    55    56    1
    56    55    58    1
    57    56    57    2
    58   105   107   ar
    59   145   144   ar
    60   107   108    1
    61   142   144   ar
    62    89    91   ar
    63    58    59    1
    64    90    91   ar
    65    59    60    1
    66   109   110    1
    67   130   129    2
    68   131   132    1
    69   131   128    1
    70   129   128    1
    71   134   132    1
    72    22    23   ar
    73    22    20   ar
    74    60    62   ar
    75    60    61   ar
    76   128   127    1
    77   110   113    1
    78   110   111    1
    79    23    21   ar
    80   113   114    1
    81   115   114   ar
    82   115   117   ar
    83    20    18   ar
    84     5     2    1
    85     5     6    1
    86   114   116   ar
    87   111   112    2
    88   127   121   am
    89    52    50   ar
    90    52    53   ar
    91    21    19   ar
    92   117   118   ar
    93     2     3    1
    94     2     1    1
    95    18    19   ar
    96    18    17    1
    97    50    48   ar
    98     6     8   ar
    99     6     7   ar
   100   122   121    2
   101    53    51   ar
   102     8    10   ar
   103   121   120    1
   104   116   118   ar
   105     3     4    2
   106     7     9   ar
   107    10    11   ar
   108    17    14    1
   109   125   123    1
   110    48    49   ar
   111    48    47    1
   112    13    14    1
   113    51    49   ar
   114    46    45    2
   115     9    11   ar
   116   120   119    1
   117   120   123    1
   118    11    12    1
   119    14    15    1
   120    45    44    1
   121    47    44    1
   122    27    26    2
   123   123   124    1
   124   124   126    1
   125    24    15   am
   126    24    25    1
   127    15    16    2
   128    28    25    1
   129    28    29    1
   130    44    43    1
   131    31    29   ar
   132    26    25    1
   133    29    30   ar
   134    42    40    1
   135    40    41    1
   136    40    39    2
   137    39    38    1
   138    38    37    1
   139    37    36    1
   140    32    33    1
   141    36    33    1
   142    33    34    1
   143    34    35    2
