@<TRIPOS>MOLECULE
tmp/1qpgA01.pdb
 94 88 0 0 0
SMALL
GASTEIGER

@<TRIPOS>ATOM
      1  N         22.9520   13.8440    4.9510 N.3    23  ASP23      -0.1239
      2  CA        22.5880   14.3100    6.2720 C.3    23  ASP23       0.1674
      3  C         22.0270   15.7440    6.1830 C.2    23  ASP23       0.2266
      4  O         22.7620   16.7340    6.2430 O.2    23  ASP23      -0.2867
      5  CB        23.7790   14.2520    7.2210 C.3    23  ASP23       0.1410
      6  CG        23.3930   14.5820    8.6480 C.2    23  ASP23       0.3668
      7  OD1       22.1780   14.7290    8.9390 O.co2  23  ASP23      -0.2456
      8  OD2       24.3120   14.7060    9.4840 O.co2  23  ASP23      -0.2456
      9  N         19.7860   16.8090    8.2970 N.3    25  ASN25      -0.1240
     10  CA        19.0910   16.9190    9.5850 C.3    25  ASN25       0.1653
     11  C         19.3900   18.2890   10.2150 C.2    25  ASN25       0.2266
     12  O         20.0380   18.3790   11.2540 O.2    25  ASN25      -0.2867
     13  CB        19.5210   15.7990   10.5390 C.3    25  ASN25       0.1155
     14  CG        18.6980   15.7750   11.8390 C.2    25  ASN25       0.2627
     15  OD1       17.5610   16.2480   11.8930 O.2    25  ASN25      -0.2716
     16  ND2       19.2740   15.2050   12.8850 N.am   25  ASN25      -0.0877
     17  N         24.6760   21.8150    7.4260 N.3    38  ARG38      -0.1245
     18  CA        24.5770   20.4710    6.8710 C.3    38  ARG38       0.1563
     19  C         24.2280   20.3820    5.4010 C.2    38  ARG38       0.2260
     20  O         24.7120   19.4920    4.7040 O.2    38  ARG38      -0.2867
     21  CB        23.6360   19.6360    7.7140 C.3    38  ARG38       0.0307
     22  CG        24.2820   19.1980    9.0160 C.3    38  ARG38       0.0489
     23  CD        23.2520   18.6860    9.9750 C.3    38  ARG38       0.2205
     24  NE        23.7850   17.5830   10.7590 N.pl3  38  ARG38      -0.0865
     25  CZ        23.3180   17.2140   11.9460 C.cat  38  ARG38       0.5346
     26  NH1       22.3040   17.8670   12.5010 N.pl3  38  ARG38       0.1354
     27  NH2       23.8510   16.1690   12.5670 N.pl3  38  ARG38       0.1354
     28  N         16.6630   12.1010    6.7880 N.3    62  HIS62      -0.1241
     29  CA        15.6610   12.1890    7.8320 C.3    62  HIS62       0.1621
     30  C         15.8640   13.5520    8.4870 C.2    62  HIS62       0.2264
     31  O         16.8780   14.2100    8.2460 O.2    62  HIS62      -0.2867
     32  CB        15.8500   11.0860    8.8650 C.3    62  HIS62       0.0745
     33  CG        17.0150   11.3110    9.7680 C.ar   62  HIS62       0.0817
     34  ND1       18.3140   11.0830    9.3690 N.ar   62  HIS62      -0.2268
     35  CD2       17.0860   11.8190   11.0190 C.ar   62  HIS62       0.1154
     36  CE1       19.1360   11.4510   10.3350 C.ar   62  HIS62       0.1986
     37  NE2       18.4150   11.9010   11.3470 N.ar   62  HIS62      -0.2212
     38  N         14.8050   15.5040   12.4240 N.3    64  GLY64      -0.1225
     39  CA        14.1420   15.4250   13.7150 C.3    64  GLY64       0.1811
     40  C         13.7280   14.0110   14.0530 C.2    64  GLY64       0.2280
     41  O         14.3340   13.0580   13.5760 O.2    64  GLY64      -0.2866
     42  N         11.9900    9.0100    7.9190 N.3   121  ARG121     -0.1245
     43  CA        11.4270    8.5550    9.1850 C.3   121  ARG121      0.1563
     44  C          9.9380    8.7470    9.4020 C.2   121  ARG121      0.2260
     45  O          9.4450    8.6780   10.5380 O.2   121  ARG121     -0.2867
     46  CB        12.2240    9.1090   10.3490 C.3   121  ARG121      0.0307
     47  CG        13.6380    8.6040   10.3420 C.3   121  ARG121      0.0489
     48  CD        14.3200    8.9550   11.6200 C.3   121  ARG121      0.2205
     49  NE        15.7310    8.6430   11.5280 N.pl3 121  ARG121     -0.0865
     50  CZ        16.5750    8.7640   12.5380 C.cat 121  ARG121      0.5346
     51  NH1       16.1330    9.1990   13.7170 N.pl3 121  ARG121      0.1354
     52  NH2       17.8590    8.4540   12.3740 N.pl3 121  ARG121      0.1354
     53  N         26.9040   10.4970   10.1710 N.3   164  GLY164     -0.1210
     54  CA        26.1510   10.6380   11.4000 C.3   164  GLY164      0.1956
     55  C         25.1340    9.5500   11.6590 C.2   164  GLY164      0.2612
     56  O         24.6950    9.3940   12.7980 O.2   164  GLY164     -0.2717
     57  N         24.7370    8.7970   10.6330 N.am  165  THR165     -0.1952
     58  CA        23.7590    7.7350   10.8550 C.3   165  THR165      0.1897
     59  C         24.3380    6.3400   10.6420 C.2   165  THR165      0.2313
     60  O         23.7480    5.3490   11.0570 O.2   165  THR165     -0.2863
     61  CB        22.4980    7.9410    9.9880 C.3   165  THR165      0.1794
     62  OG1       22.0530    9.2940   10.1340 O.3   165  THR165     -0.2208
     63  CG2       21.3540    7.0200   10.4480 C.3   165  THR165      0.0378
     64  N         26.0790    4.4590   12.2000 N.3   167  HIS167     -0.1226
     65  CA        26.1950    3.5680   13.3390 C.3   167  HIS167      0.1752
     66  C         24.8900    2.8570   13.6420 C.2   167  HIS167      0.2595
     67  O         24.7850    2.1650   14.6470 O.2   167  HIS167     -0.2718
     68  CB        26.6880    4.3370   14.5710 C.3   167  HIS167      0.0759
     69  CG        25.7330    5.3790   15.0730 C.ar  167  HIS167      0.0818
     70  ND1       25.2330    6.3870   14.2770 N.ar  167  HIS167     -0.2268
     71  CD2       25.2160    5.5880   16.3070 C.ar  167  HIS167      0.1154
     72  CE1       24.4490    7.1710   14.9980 C.ar  167  HIS167      0.1986
     73  NE2       24.4230    6.7090   16.2340 N.ar  167  HIS167     -0.2212
     74  N         23.8830    3.0720   12.8020 N.am  168  ARG168     -0.1980
     75  CA        22.5750    2.4510   12.9850 C.3   168  ARG168      0.1597
     76  C         22.3040    1.6270   11.7420 C.2   168  ARG168      0.2287
     77  O         22.7050    2.0040   10.6370 O.2   168  ARG168     -0.2864
     78  CB        21.4910    3.5150   13.1620 C.3   168  ARG168      0.0334
     79  CG        21.7400    4.5120   14.2950 C.3   168  ARG168      0.0492
     80  CD        21.5620    3.9090   15.7040 C.3   168  ARG168      0.2205
     81  NE        22.5130    2.8300   16.0090 N.pl3 168  ARG168     -0.0865
     82  CZ        23.1730    2.6880   17.1620 C.cat 168  ARG168      0.5346
     83  NH1       23.0030    3.5550   18.1560 N.pl3 168  ARG168      0.1354
     84  NH2       24.0270    1.6790   17.3140 N.pl3 168  ARG168      0.1354
     85  N         19.8060    1.1480    9.8610 N.3   170  HIS170     -0.1241
     86  CA        18.5230    1.6230    9.3720 C.3   170  HIS170      0.1621
     87  C         18.3780    1.2280    7.9170 C.2   170  HIS170      0.2264
     88  O         19.3660    0.9980    7.2180 O.2   170  HIS170     -0.2867
     89  CB        18.4470    3.1330    9.5500 C.3   170  HIS170      0.0745
     90  CG        18.3070    3.5590   10.9790 C.ar  170  HIS170      0.0817
     91  ND1       18.1280    4.8720   11.3510 N.ar  170  HIS170     -0.2268
     92  CD2       18.2260    2.8320   12.1180 C.ar  170  HIS170      0.1154
     93  CE1       17.9270    4.9340   12.6550 C.ar  170  HIS170      0.1986
     94  NE2       17.9800    3.7100   13.1430 N.ar  170  HIS170     -0.2212
@<TRIPOS>BOND
     1    20    19    2
     2     1     2    1
     3    19    18    1
     4     3     4    2
     5     3     2    1
     6     2     5    1
     7    28    29    1
     8    18    17    1
     9    18    21    1
    10    88    87    2
    11     5     6    1
    12    21    22    1
    13    29    30    1
    14    29    32    1
    15    87    86    1
    16    42    43    1
    17    31    30    2
    18     9    10    1
    19     6     7   ar
    20     6     8   ar
    21    32    33    1
    22    22    23    1
    23    43    44    1
    24    43    46    1
    25    34    33   ar
    26    34    36   ar
    27    86    89    1
    28    86    85    1
    29    44    45    2
    30    89    90    1
    31    10    11    1
    32    10    13    1
    33    33    35   ar
    34    23    24    1
    35    61    62    1
    36    61    63    1
    37    61    58    1
    38    53    54    1
    39    11    12    2
    40    36    37   ar
    41    47    46    1
    42    47    48    1
    43    13    14    1
    44    57    58    1
    45    57    55   am
    46    77    76    2
    47    59    58    1
    48    59    60    2
    49    24    25    2
    50    90    91   ar
    51    90    92   ar
    52    35    37   ar
    53    91    93   ar
    54    54    55    1
    55    49    48    1
    56    49    50    2
    57    55    56    2
    58    76    75    1
    59    14    15    2
    60    14    16   am
    61    25    26    1
    62    25    27    1
    63    92    94   ar
    64    64    65    1
    65    52    50    1
    66    38    39    1
    67    50    51    1
    68    93    94   ar
    69    74    75    1
    70    74    66   am
    71    75    78    1
    72    78    79    1
    73    65    66    1
    74    65    68    1
    75    41    40    2
    76    66    67    2
    77    39    40    1
    78    70    72   ar
    79    70    69   ar
    80    79    80    1
    81    68    69    1
    82    72    73   ar
    83    69    71   ar
    84    80    81    1
    85    81    82    2
    86    73    71   ar
    87    82    84    1
    88    82    83    1
