@<TRIPOS>MOLECULE
tmp/1qpgA00.pdb
 181 175 0 0 0
SMALL
GASTEIGER

@<TRIPOS>ATOM
      1  N         35.5230   17.4020   29.3900 N.3   211  GLY211     -0.1210
      2  CA        34.0830   17.5080   29.4540 C.3   211  GLY211      0.1956
      3  C         33.5310   17.2890   30.8310 C.2   211  GLY211      0.2612
      4  O         34.2690   17.3580   31.8070 O.2   211  GLY211     -0.2717
      5  N         32.2450   16.9600   30.9000 N.am  212  ALA212     -0.1965
      6  CA        31.5480   16.7530   32.1650 C.3   212  ALA212      0.1728
      7  C         31.6000   15.3800   32.8630 C.2   212  ALA212      0.2616
      8  O         32.1900   15.2610   33.9360 O.2   212  ALA212     -0.2715
      9  CB        30.0990   17.2180   32.0310 C.3   212  ALA212      0.0334
     10  N         30.9750   14.3530   32.2870 N.am  213  LYS213     -0.1977
     11  CA        30.9410   13.0350   32.9290 C.3   213  LYS213      0.1596
     12  C         31.9100   11.9900   32.3980 C.2   213  LYS213      0.2287
     13  O         32.1280   11.8660   31.1990 O.2   213  LYS213     -0.2864
     14  CB        29.5230   12.4550   32.9000 C.3   213  LYS213      0.0298
     15  CG        28.4640   13.3040   33.6050 C.3   213  LYS213      0.0038
     16  CD        28.6560   13.3540   35.1250 C.3   213  LYS213      0.0206
     17  CE        27.6280   14.2860   35.7880 C.3   213  LYS213      0.1093
     18  NZ        27.6830   14.2720   37.2850 N.3   213  LYS213     -0.1314
     19  N         32.1460    8.2230   28.9740 N.3   217  LYS217     -0.1245
     20  CA        33.3560    7.9070   28.2310 C.3   217  LYS217      0.1561
     21  C         34.1620    6.7270   28.7540 C.2   217  LYS217      0.2260
     22  O         35.3190    6.5470   28.3710 O.2   217  LYS217     -0.2867
     23  CB        34.2250    9.1620   28.0970 C.3   217  LYS217      0.0271
     24  CG        33.4010   10.4350   27.9300 C.3   217  LYS217      0.0035
     25  CD        34.0920   11.5060   27.1100 C.3   217  LYS217      0.0206
     26  CE        33.1450   12.6800   26.8870 C.3   217  LYS217      0.1093
     27  NZ        33.6660   13.6230   25.8640 N.3   217  LYS217     -0.1314
     28  N         39.0650   18.7560   32.1150 N.3   235  GLY235     -0.1210
     29  CA        37.6740   19.1100   32.3290 C.3   235  GLY235      0.1956
     30  C         37.0400   18.6070   33.6000 C.2   235  GLY235      0.2612
     31  O         37.7210   18.3080   34.5740 O.2   235  GLY235     -0.2717
     32  N         35.7130   18.5340   33.5950 N.am  236  GLY236     -0.1956
     33  CA        34.9820   18.0670   34.7600 C.3   236  GLY236      0.1869
     34  C         35.1700   16.5790   34.9390 C.2   236  GLY236      0.2309
     35  O         34.7050   15.9950   35.9100 O.2   236  GLY236     -0.2863
     36  N         38.1110   15.4650   37.8670 N.3   239  PHE239     -0.1241
     37  CA        37.8000   15.4510   39.2790 C.3   239  PHE239      0.1605
     38  C         37.5520   14.0570   39.8470 C.2   239  PHE239      0.2264
     39  O         37.9230   13.7840   40.9880 O.2   239  PHE239     -0.2867
     40  CB        36.6610   16.4200   39.5630 C.3   239  PHE239      0.0534
     41  CG        36.9810   17.8160   39.1290 C.ar  239  PHE239     -0.0203
     42  CD1       37.8140   18.6130   39.8950 C.ar  239  PHE239     -0.0042
     43  CD2       36.5700   18.2810   37.8870 C.ar  239  PHE239     -0.0042
     44  CE1       38.2390   19.8310   39.4340 C.ar  239  PHE239     -0.0003
     45  CE2       36.9940   19.5020   37.4180 C.ar  239  PHE239     -0.0003
     46  CZ        37.8300   20.2750   38.1890 C.ar  239  PHE239     -0.0000
     47  N         32.4410   18.3210   39.6130 N.3   254  ILE254     -0.1245
     48  CA        31.7770   17.1770   39.0030 C.3   254  ILE254      0.1561
     49  C         32.3820   15.8550   39.4650 C.2   254  ILE254      0.2260
     50  O         33.5790   15.6240   39.3050 O.2   254  ILE254     -0.2867
     51  CB        31.8570   17.2420   37.4600 C.3   254  ILE254      0.0252
     52  CG1       31.0590   18.4370   36.9480 C.3   254  ILE254      0.0019
     53  CG2       31.3250   15.9630   36.8400 C.3   254  ILE254      0.0019
     54  CD1       29.6240   18.4570   37.4420 C.3   254  ILE254      0.0001
     55  N         28.7540   28.5080   40.0810 N.3   289  PHE289     -0.1241
     56  CA        28.7860   28.2160   38.6510 C.3   289  PHE289      0.1605
     57  C         28.1440   29.3830   37.9040 C.2   289  PHE289      0.2264
     58  O         26.9490   29.3520   37.6080 O.2   289  PHE289     -0.2867
     59  CB        28.0420   26.9090   38.3520 C.3   289  PHE289      0.0534
     60  CG        28.3450   26.3310   36.9960 C.ar  289  PHE289     -0.0203
     61  CD1       27.6640   26.7640   35.8710 C.ar  289  PHE289     -0.0042
     62  CD2       29.3140   25.3530   36.8490 C.ar  289  PHE289     -0.0042
     63  CE1       27.9430   26.2330   34.6260 C.ar  289  PHE289     -0.0003
     64  CE2       29.5980   24.8190   35.6060 C.ar  289  PHE289     -0.0003
     65  CZ        28.9110   25.2590   34.4930 C.ar  289  PHE289     -0.0000
     66  N         36.0590   23.7090   40.8460 N.3   310  GLY310     -0.1210
     67  CA        36.9810   24.0420   39.7780 C.3   310  GLY310      0.1956
     68  C         36.2820   24.1020   38.4420 C.2   310  GLY310      0.2612
     69  O         35.6210   23.1470   38.0480 O.2   310  GLY310     -0.2717
     70  N         36.4410   25.2110   37.7320 N.am  311  LEU311     -0.1965
     71  CA        35.7870   25.3550   36.4510 C.3   311  LEU311      0.1728
     72  C         36.7430   25.4840   35.2880 C.2   311  LEU311      0.2616
     73  O         36.3090   25.6060   34.1500 O.2   311  LEU311     -0.2715
     74  CB        34.7910   26.5130   36.4910 C.3   311  LEU311      0.0311
     75  CG        33.7610   26.3900   37.6250 C.3   311  LEU311      0.0022
     76  CD1       32.7920   27.5340   37.5950 C.3   311  LEU311      0.0001
     77  CD2       33.0040   25.1050   37.5130 C.3   311  LEU311      0.0001
     78  N         38.0410   25.4240   35.5550 N.am  312  ASP312     -0.1971
     79  CA        39.0290   25.5090   34.4840 C.3   312  ASP312      0.1709
     80  C         40.4000   25.0140   34.9400 C.2   312  ASP312      0.2293
     81  O         40.6470   24.7830   36.1290 O.2   312  ASP312     -0.2864
     82  CB        39.1170   26.9360   33.9110 C.3   312  ASP312      0.1436
     83  CG        40.0450   27.0450   32.6820 C.2   312  ASP312      0.3671
     84  OD1       40.1600   26.0870   31.8850 O.co2 312  ASP312     -0.2456
     85  OD2       40.6660   28.1140   32.5000 O.co2 312  ASP312     -0.2456
     86  N         38.6130   15.2370   22.2110 N.3   334  ASN334     -0.1225
     87  CA        37.1830   15.2980   22.4410 C.3   334  ASN334      0.1785
     88  C         36.9470   15.7620   23.8750 C.2   334  ASN334      0.2598
     89  O         37.2720   15.0480   24.8240 O.2   334  ASN334     -0.2718
     90  CB        36.5310   13.9250   22.2090 C.3   334  ASN334      0.1169
     91  CG        35.0450   13.8980   22.6020 C.2   334  ASN334      0.2627
     92  OD1       34.5370   14.8320   23.2090 O.2   334  ASN334     -0.2716
     93  ND2       34.3530   12.8180   22.2580 N.am  334  ASN334     -0.0877
     94  N         36.3770   16.9590   24.0180 N.am  335  GLY335     -0.1943
     95  CA        36.0780   17.5290   25.3260 C.3   335  GLY335      0.1998
     96  C         36.9480   18.7170   25.7240 C.2   335  GLY335      0.2481
     97  O         38.1830   18.6490   25.6230 O.2   335  GLY335     -0.2729
     98  N         36.3370   19.8480   26.1300 N.am  336  PRO336     -0.2715
     99  CA        37.0630   21.0620   26.5470 C.3   336  PRO336      0.1521
    100  C         37.6420   20.9110   27.9750 C.2   336  PRO336      0.2440
    101  O         36.9910   20.3270   28.8440 O.2   336  PRO336     -0.2731
    102  CB        35.9620   22.1420   26.5100 C.3   336  PRO336      0.0310
    103  CG        34.9400   21.5870   25.5570 C.3   336  PRO336      0.0237
    104  CD        34.9050   20.1400   25.9610 C.3   336  PRO336      0.0939
    105  N         38.8510   21.4500   28.2420 N.am  337  PRO337     -0.2716
    106  CA        39.4760   21.3500   29.5750 C.3   337  PRO337      0.1536
    107  C         38.7860   22.1650   30.6690 C.2   337  PRO337      0.2599
    108  O         39.0940   21.9900   31.8460 O.2   337  PRO337     -0.2715
    109  CB        40.8860   21.8800   29.3450 C.3   337  PRO337      0.0310
    110  CG        41.1050   21.6840   27.8840 C.3   337  PRO337      0.0237
    111  CD        39.7860   22.0570   27.2840 C.3   337  PRO337      0.0939
    112  N         37.8850   23.0700   30.2840 N.am  338  GLY338     -0.1941
    113  CA        37.1820   23.8840   31.2670 C.3   338  GLY338      0.2014
    114  C         35.9010   24.5030   30.7310 C.2   338  GLY338      0.2639
    115  O         35.6380   24.4290   29.5300 O.2   338  GLY338     -0.2714
    116  N         35.1000   25.0930   31.6210 N.am  339  VAL339     -0.1963
    117  CA        33.8380   25.7450   31.2570 C.3   339  VAL339      0.1727
    118  C         34.1580   26.9810   30.4150 C.2   339  VAL339      0.2616
    119  O         34.1040   28.1200   30.8970 O.2   339  VAL339     -0.2715
    120  CB        33.0640   26.1480   32.5180 C.3   339  VAL339      0.0290
    121  CG1       31.7550   26.8020   32.1680 C.3   339  VAL339      0.0023
    122  CG2       32.8080   24.9410   33.3530 C.3   339  VAL339      0.0023
    123  N         34.4650   26.7420   29.1420 N.am  340  PHE340     -0.1960
    124  CA        34.8500   27.8000   28.2190 C.3   340  PHE340      0.1771
    125  C         33.7390   28.7790   27.8150 C.2   340  PHE340      0.2619
    126  O         34.0180   29.8190   27.2010 O.2   340  PHE340     -0.2715
    127  CB        35.5370   27.1980   26.9860 C.3   340  PHE340      0.0574
    128  CG        34.5910   26.5700   26.0160 C.ar  340  PHE340     -0.0200
    129  CD1       33.8200   25.4840   26.3830 C.ar  340  PHE340     -0.0042
    130  CD2       34.4280   27.1080   24.7500 C.ar  340  PHE340     -0.0042
    131  CE1       32.8990   24.9500   25.5120 C.ar  340  PHE340     -0.0003
    132  CE2       33.5030   26.5760   23.8750 C.ar  340  PHE340     -0.0003
    133  CZ        32.7370   25.4960   24.2590 C.ar  340  PHE340     -0.0000
    134  N         32.4900   28.4500   28.1570 N.am  341  GLU341     -0.1977
    135  CA        31.3470   29.3200   27.8480 C.3   341  GLU341      0.1602
    136  C         31.4970   30.6730   28.5500 C.2   341  GLU341      0.2287
    137  O         30.9350   31.6750   28.1070 O.2   341  GLU341     -0.2864
    138  CB        30.0230   28.6860   28.2880 C.3   341  GLU341      0.0415
    139  CG        29.6630   27.3850   27.5990 C.3   341  GLU341      0.1163
    140  CD        30.2330   26.1640   28.2930 C.2   341  GLU341      0.3649
    141  OE1       29.9480   25.9460   29.4890 O.co2 341  GLU341     -0.2457
    142  OE2       30.9550   25.4050   27.6350 O.co2 341  GLU341     -0.2457
    143  N         36.8320   15.6520   17.6150 N.3   369  GLY369     -0.1210
    144  CA        35.6510   14.8350   17.5370 C.3   369  GLY369      0.1956
    145  C         34.7860   15.0630   18.7450 C.2   369  GLY369      0.2612
    146  O         34.5990   14.1540   19.5510 O.2   369  GLY369     -0.2717
    147  N         34.2810   16.2820   18.8850 N.am  370  GLY370     -0.1942
    148  CA        33.4180   16.6050   20.0030 C.3   370  GLY370      0.2014
    149  C         32.4690   17.6980   19.5650 C.2   370  GLY370      0.2639
    150  O         32.7920   18.4620   18.6530 O.2   370  GLY370     -0.2714
    151  N         31.2980   17.7720   20.1830 N.am  371  GLY371     -0.1939
    152  CA        30.3460   18.8080   19.8240 C.3   371  GLY371      0.2014
    153  C         30.9160   20.1720   20.1620 C.2   371  GLY371      0.2639
    154  O         31.2980   20.9470   19.2690 O.2   371  GLY371     -0.2714
    155  N         31.0580   20.4260   21.4620 N.am  372  ASP372     -0.1957
    156  CA        31.5930   21.6900   21.9570 C.3   372  ASP372      0.1840
    157  C         33.0620   21.8670   21.5850 C.2   372  ASP372      0.2622
    158  O         33.5510   22.9950   21.4930 O.2   372  ASP372     -0.2715
    159  CB        31.3950   21.7940   23.4640 C.3   372  ASP372      0.1450
    160  CG        29.9350   21.9110   23.8430 C.2   372  ASP372      0.3671
    161  OD1       29.3230   22.9380   23.4800 O.co2 372  ASP372     -0.2456
    162  OD2       29.3890   20.9800   24.4800 O.co2 372  ASP372     -0.2456
    163  N         33.7660   20.7620   21.3600 N.am  373  THR373     -0.1951
    164  CA        35.1650   20.8440   20.9620 C.3   373  THR373      0.1897
    165  C         35.2970   21.4250   19.5470 C.2   373  THR373      0.2313
    166  O         36.3440   21.9840   19.1980 O.2   373  THR373     -0.2863
    167  CB        35.8570   19.4900   21.0270 C.3   373  THR373      0.1794
    168  OG1       35.6070   18.8970   22.3010 O.3   373  THR373     -0.2208
    169  CG2       37.3320   19.6720   20.8750 C.3   373  THR373      0.0378
    170  N         29.2100   12.9090   15.3510 N.3   393  GLY393     -0.1225
    171  CA        28.4860   12.8690   16.6130 C.3   393  GLY393      0.1811
    172  C         28.5400   11.4940   17.2630 C.2   393  GLY393      0.2280
    173  O         29.6250   10.9810   17.5560 O.2   393  GLY393     -0.2866
    174  N         31.8530    8.6690   18.2700 N.3   397  LEU397     -0.1245
    175  CA        32.0910    8.0850   19.5840 C.3   397  LEU397      0.1561
    176  C         32.1780    6.5680   19.4670 C.2   397  LEU397      0.2260
    177  O         33.2080    5.9550   19.7970 O.2   397  LEU397     -0.2867
    178  CB        30.9580    8.4630   20.5490 C.3   397  LEU397      0.0270
    179  CG        31.1050    7.9150   21.9800 C.3   397  LEU397      0.0019
    180  CD1       32.3180    8.5610   22.6580 C.3   397  LEU397      0.0001
    181  CD2       29.8240    8.1430   22.8010 C.3   397  LEU397      0.0001
@<TRIPOS>BOND
     1   170   171    1
     2   171   172    1
     3   172   173    2
     4   144   143    1
     5   144   145    1
     6   174   175    1
     7   150   149    2
     8   145   147   am
     9   145   146    2
    10   147   148    1
    11   166   165    2
    12   154   153    2
    13   176   175    1
    14   176   177    2
    15   165   164    1
    16   149   148    1
    17   149   151   am
    18   175   178    1
    19   152   153    1
    20   152   151    1
    21   153   155   am
    22   178   179    1
    23   169   167    1
    24   164   167    1
    25   164   163    1
    26   167   168    1
    27   163   157   am
    28   155   156    1
    29   158   157    2
    30   157   156    1
    31   156   159    1
    32   179   180    1
    33   179   181    1
    34    90    87    1
    35    90    91    1
    36    86    87    1
    37    93    91   am
    38    87    88    1
    39    91    92    2
    40   159   160    1
    41   161   160   ar
    42   160   162   ar
    43    88    94   am
    44    88    89    2
    45   132   133   ar
    46   132   130   ar
    47    94    95    1
    48   133   131   ar
    49   130   128   ar
    50    95    96    1
    51   131   129   ar
    52   103   104    1
    53   103   102    1
    54    97    96    2
    55    96    98   am
    56    27    26    1
    57   104    98    1
    58   128   129   ar
    59   128   127    1
    60    98    99    1
    61   102    99    1
    62    99   100    1
    63    26    25    1
    64   127   124    1
    65    25    24    1
    66   126   125    2
    67   111   110    1
    68   111   105    1
    69   139   138    1
    70   139   140    1
    71   142   140   ar
    72   125   134   am
    73   125   124    1
    74   135   134    1
    75   135   138    1
    76   135   136    1
    77   110   109    1
    78    24    23    1
    79   100   105   am
    80   100   101    2
    81    23    20    1
    82   137   136    2
    83   124   123    1
    84    20    21    1
    85    20    19    1
    86   105   106    1
    87   140   141   ar
    88    22    21    2
    89   123   118   am
    90   109   106    1
    91     1     2    1
    92     2     3    1
    93   115   114    2
    94   106   107    1
    95   112   107   am
    96   112   113    1
    97   118   119    2
    98   118   117    1
    99   107   108    2
   100   114   113    1
   101   114   116   am
   102     3     5   am
   103     3     4    2
   104     5     6    1
   105    13    12    2
   106   117   116    1
   107   117   120    1
   108    84    83   ar
   109     9     6    1
   110    28    29    1
   111     6     7    1
   112   121   120    1
   113    10     7   am
   114    10    11    1
   115    29    30    1
   116    12    11    1
   117    85    83   ar
   118   120   122    1
   119    83    82    1
   120     7     8    2
   121    14    11    1
   122    14    15    1
   123    32    30   am
   124    32    33    1
   125    30    31    2
   126    15    16    1
   127    82    79    1
   128    73    72    2
   129    79    80    1
   130    79    78    1
   131    65    63   ar
   132    65    64   ar
   133    63    61   ar
   134    33    34    1
   135    34    35    2
   136    80    81    2
   137    16    17    1
   138    72    78   am
   139    72    71    1
   140    64    62   ar
   141    17    18    1
   142    61    60   ar
   143    71    74    1
   144    71    70    1
   145    74    75    1
   146    53    51    1
   147    62    60   ar
   148    52    54    1
   149    52    51    1
   150    60    59    1
   151    45    43   ar
   152    45    46   ar
   153    51    48    1
   154    77    75    1
   155    76    75    1
   156    58    57    2
   157    70    68   am
   158    36    37    1
   159    43    41   ar
   160    57    56    1
   161    69    68    2
   162    46    44   ar
   163    59    56    1
   164    68    67    1
   165    56    55    1
   166    48    49    1
   167    48    47    1
   168    41    40    1
   169    41    42   ar
   170    37    40    1
   171    37    38    1
   172    50    49    2
   173    44    42   ar
   174    67    66    1
   175    38    39    2
