@<TRIPOS>MOLECULE
tmp/1qpjA00.pdb
 170 160 0 0 0
SMALL
GASTEIGER

@<TRIPOS>ATOM
      1  N         27.4430   17.9060   17.6840 N.3    16  LEU16      -0.1231
      2  CA        27.1240   16.6460   17.0120 C.3    16  LEU16       0.1693
      3  C         26.9150   16.8440   15.5160 C.2    16  LEU16       0.2593
      4  O         27.2640   15.9860   14.6800 O.2    16  LEU16      -0.2718
      5  CB        25.7920   16.0220   17.6710 C.3    16  LEU16       0.0284
      6  CG        26.0600   15.6430   19.1160 C.3    16  LEU16       0.0019
      7  CD1       24.7800   15.2820   19.8380 C.3    16  LEU16       0.0001
      8  CD2       27.0300   14.4870   19.1400 C.3    16  LEU16       0.0001
      9  N         26.2140   17.9240   15.2150 N.am   17  GLY17      -0.1942
     10  CA        25.9220   18.2630   13.8570 C.3    17  GLY17       0.2014
     11  C         25.5190   19.6980   13.7940 C.2    17  GLY17       0.2639
     12  O         25.3840   20.3360   14.7730 O.2    17  GLY17      -0.2714
     13  N         25.3810   20.1940   12.5820 N.am   18  ALA18      -0.1963
     14  CA        25.0230   21.5750   12.3520 C.3    18  ALA18       0.1728
     15  C         24.1690   21.6200   11.1090 C.2    18  ALA18       0.2616
     16  O         24.0940   20.6610   10.3330 O.2    18  ALA18      -0.2715
     17  CB        26.2690   22.4160   12.1630 C.3    18  ALA18       0.0334
     18  N         23.5430   22.7620   10.9070 N.am   19  GLY19      -0.1955
     19  CA        22.6810   22.9320    9.7600 C.3    19  GLY19       0.1869
     20  C         22.4530   24.4120    9.5020 C.2    19  GLY19       0.2309
     21  O         22.8750   25.2730   10.2200 O.2    19  GLY19      -0.2863
     22  N         23.4250   21.0640   16.7380 N.3    24  VAL24      -0.1245
     23  CA        22.9370   20.0550   17.6310 C.3    24  VAL24       0.1561
     24  C         24.1470   19.6690   18.4340 C.2    24  VAL24       0.2260
     25  O         25.1580   19.2870   17.8810 O.2    24  VAL24      -0.2867
     26  CB        22.4000   18.7830   16.9050 C.3    24  VAL24       0.0252
     27  CG1       21.7270   17.8510   17.9550 C.3    24  VAL24       0.0019
     28  CG2       21.3820   19.1540   15.8400 C.3    24  VAL24       0.0019
     29  N         20.4000   15.3380   23.2990 N.3    36  ALA36      -0.1245
     30  CA        20.7890   16.0650   22.0940 C.3    36  ALA36       0.1562
     31  C         20.0420   17.3830   22.2840 C.2    36  ALA36       0.2260
     32  O         18.8550   17.3760   22.6640 O.2    36  ALA36      -0.2867
     33  CB        20.2680   15.3740   20.8700 C.3    36  ALA36       0.0290
     34  N         19.0740   20.6960   20.2110 N.3    38  LYS38      -0.1245
     35  CA        19.0770   21.4460   18.9650 C.3    38  LYS38       0.1561
     36  C         18.8240   22.9440   19.2570 C.2    38  LYS38       0.2260
     37  O         18.0000   23.3030   20.1010 O.2    38  LYS38      -0.2867
     38  CB        18.0660   20.8400   17.9410 C.3    38  LYS38       0.0271
     39  CG        17.8170   21.7500   16.7760 C.3    38  LYS38       0.0035
     40  CD        17.4530   20.9930   15.5010 C.3    38  LYS38       0.0206
     41  CE        16.1520   20.3150   15.6660 C.3    38  LYS38       0.1093
     42  NZ        15.8070   19.9990   14.2440 N.3    38  LYS38      -0.1314
     43  N          8.7020   22.1740   14.8200 N.3    53  GLU53      -0.1245
     44  CA         9.2310   20.8140   14.7790 C.3    53  GLU53       0.1567
     45  C          9.0320   20.0760   16.1240 C.2    53  GLU53       0.2260
     46  O          8.8140   18.9100   16.1310 O.2    53  GLU53      -0.2867
     47  CB        10.7660   20.8220   14.3640 C.3    53  GLU53       0.0388
     48  CG        11.4630   19.4750   14.4770 C.3    53  GLU53       0.1160
     49  CD        12.8970   19.5060   14.0230 C.2    53  GLU53       0.3649
     50  OE1       13.2720   20.4130   13.2600 O.co2  53  GLU53      -0.2457
     51  OE2       13.6640   18.5980   14.4140 O.co2  53  GLU53      -0.2457
     52  N         12.8760    9.2520   17.2200 N.3    66  VAL66      -0.1245
     53  CA        13.6580   10.1360   18.0660 C.3    66  VAL66       0.1561
     54  C         12.6800   10.9110   18.9690 C.2    66  VAL66       0.2260
     55  O         11.9390   11.7190   18.5070 O.2    66  VAL66      -0.2867
     56  CB        14.4780   11.0640   17.1440 C.3    66  VAL66       0.0252
     57  CG1       14.9300   12.3190   17.8510 C.3    66  VAL66       0.0019
     58  CG2       15.6440   10.3210   16.6090 C.3    66  VAL66       0.0019
     59  N         16.1870   16.5330   22.8580 N.3    81  THR81      -0.1203
     60  CA        15.6880   15.2330   22.4880 C.3    81  THR81       0.1994
     61  C         16.5980   14.1160   22.9670 C.2    81  THR81       0.2618
     62  O         17.7380   14.3470   23.4590 O.2    81  THR81      -0.2717
     63  CB        15.5740   15.1010   20.9320 C.3    81  THR81       0.1784
     64  OG1       16.8370   14.7250   20.3800 O.3    81  THR81      -0.2211
     65  CG2       15.1650   16.4300   20.3070 C.3    81  THR81       0.0376
     66  N         16.1230   12.9060   22.6970 N.am   82  GLU82      -0.1965
     67  CA        16.7750   11.6440   22.9790 C.3    82  GLU82       0.1733
     68  C         18.1190   11.6050   22.2200 C.2    82  GLU82       0.2616
     69  O         18.2490   12.1180   21.1080 O.2    82  GLU82      -0.2715
     70  CB        15.8630   10.5670   22.4860 C.3    82  GLU82       0.0429
     71  CG        16.2400    9.1120   22.7350 C.3    82  GLU82       0.1163
     72  CD        15.2660    8.1330   22.0150 C.2    82  GLU82       0.3649
     73  OE1       14.5090    8.5310   21.0840 O.co2  82  GLU82      -0.2457
     74  OE2       15.2790    6.9540   22.3960 O.co2  82  GLU82      -0.2457
     75  N         19.1380   11.0820   22.8990 N.am   83  TYR83      -0.1960
     76  CA        20.4810   10.9700   22.3370 C.3    83  TYR83       0.1771
     77  C         20.7120    9.5720   21.7130 C.2    83  TYR83       0.2619
     78  O         20.3510    8.5350   22.2950 O.2    83  TYR83      -0.2715
     79  CB        21.5590   11.2870   23.4280 C.3    83  TYR83       0.0574
     80  CG        22.9860   11.0590   22.9540 C.ar   83  TYR83      -0.0198
     81  CD1       23.5700   11.9090   22.0090 C.ar   83  TYR83      -0.0009
     82  CD2       23.7810   10.0470   23.5090 C.ar   83  TYR83      -0.0009
     83  CE1       24.8910   11.7840   21.6340 C.ar   83  TYR83       0.0417
     84  CE2       25.1070    9.9060   23.1500 C.ar   83  TYR83       0.0417
     85  CZ        25.6560   10.7940   22.2040 C.ar   83  TYR83       0.1957
     86  OH        26.9980   10.7080   21.8630 O.3    83  TYR83      -0.2866
     87  N         21.3020    9.5720   20.5210 N.am   84  MET84      -0.1963
     88  CA        21.5790    8.3510   19.7670 C.3    84  MET84       0.1736
     89  C         23.0800    8.2930   19.6200 C.2    84  MET84       0.2616
     90  O         23.6590    8.9400   18.7940 O.2    84  MET84      -0.2715
     91  CB        20.9040    8.4110   18.4380 C.3    84  MET84       0.0427
     92  CG        19.4140    8.6740   18.5290 C.3    84  MET84       0.0599
     93  SD        18.5820    7.3260   19.3650 S.3    84  MET84      -0.1393
     94  CE        18.7230    6.0490   18.1390 C.3    84  MET84       0.0692
     95  N         23.6810    7.4420   20.4230 N.am   85  GLU85      -0.1963
     96  CA        25.1110    7.3380   20.5210 C.3    85  GLU85       0.1733
     97  C         25.9460    7.0610   19.2740 C.2    85  GLU85       0.2616
     98  O         27.0920    7.4600   19.2260 O.2    85  GLU85      -0.2715
     99  CB        25.4360    6.3800   21.6020 C.3    85  GLU85       0.0429
    100  CG        26.8650    6.4720   22.0970 C.3    85  GLU85       0.1163
    101  CD        27.1140    5.5280   23.2690 C.2    85  GLU85       0.3649
    102  OE1       26.6060    5.8220   24.3960 O.co2  85  GLU85      -0.2457
    103  OE2       27.7990    4.4960   23.0240 O.co2  85  GLU85      -0.2457
    104  N         25.3740    6.3810   18.2820 N.am   86  ASN86      -0.1958
    105  CA        26.1370    6.0770   17.1030 C.3    86  ASN86       0.1819
    106  C         25.8900    6.9730   15.9250 C.2    86  ASN86       0.2622
    107  O         26.3070    6.6160   14.8540 O.2    86  ASN86      -0.2715
    108  CB        25.9870    4.5100   16.6760 C.3    86  ASN86       0.1195
    109  CG        26.9040    3.6050   17.4950 C.2    86  ASN86       0.2630
    110  OD1       28.1130    3.8670   17.5840 O.2    86  ASN86      -0.2716
    111  ND2       26.3520    2.5640   18.1000 N.am   86  ASN86      -0.0877
    112  N         25.2220    8.1190   16.1150 N.am   87  GLY87      -0.1940
    113  CA        25.0110    9.0510   15.0090 C.3    87  GLY87       0.2014
    114  C         24.1910    8.6440   13.7650 C.2    87  GLY87       0.2639
    115  O         23.3150    7.7820   13.8260 O.2    87  GLY87      -0.2714
    116  N         24.4100    9.3490   12.6580 N.am   88  SER88      -0.1949
    117  CA        23.6960    9.0460   11.4250 C.3    88  SER88       0.1924
    118  C         24.0550    7.6970   10.8720 C.2    88  SER88       0.2314
    119  O         25.1870    7.3340   10.8490 O.2    88  SER88      -0.2863
    120  CB        24.0230   10.0280   10.3360 C.3    88  SER88       0.2116
    121  OG        23.4510   11.2780   10.6070 O.3    88  SER88      -0.2180
    122  N         24.1080    7.0010    7.7730 N.3    90  VAL90      -0.1231
    123  CA        25.0120    7.1830    6.6240 C.3    90  VAL90       0.1692
    124  C         26.5060    7.2440    6.9680 C.2    90  VAL90       0.2592
    125  O         27.3490    6.5930    6.2830 O.2    90  VAL90      -0.2718
    126  CB        24.5000    8.3220    5.6540 C.3    90  VAL90       0.0266
    127  CG1       24.6580    9.7090    6.2800 C.3    90  VAL90       0.0020
    128  CG2       25.1430    8.2020    4.2540 C.3    90  VAL90       0.0020
    129  N         26.8180    7.8130    8.1340 N.am   91  ASP91      -0.1974
    130  CA        28.1910    7.9430    8.6160 C.3    91  ASP91       0.1709
    131  C         28.6150    6.6890    9.3410 C.2    91  ASP91       0.2293
    132  O         29.7450    6.2440    9.2130 O.2    91  ASP91      -0.2864
    133  CB        28.3110    9.1300    9.5990 C.3    91  ASP91       0.1436
    134  CG        27.9270   10.4640    8.9760 C.2    91  ASP91       0.3671
    135  OD1       27.9550   10.5930    7.7310 O.co2  91  ASP91      -0.2456
    136  OD2       27.6130   11.4060    9.7470 O.co2  91  ASP91      -0.2456
    137  N         21.0380    9.7410    6.1480 N.3   133  ALA133     -0.1231
    138  CA        21.5320   10.7900    7.0060 C.3   133  ALA133      0.1694
    139  C         20.5310   11.1380    8.1260 C.2   133  ALA133      0.2592
    140  O         20.9370   11.6030    9.1830 O.2   133  ALA133     -0.2718
    141  CB        21.8530   12.0300    6.2110 C.3   133  ALA133      0.0304
    142  N         19.2380   10.9370    7.8770 N.am  134  ASN134     -0.1974
    143  CA        18.1930   11.2590    8.8510 C.3   134  ASN134      0.1688
    144  C         17.7130   10.0450    9.6870 C.2   134  ASN134      0.2292
    145  O         16.6670   10.0770   10.3330 O.2   134  ASN134     -0.2864
    146  CB        17.0140   12.0620    8.1760 C.3   134  ASN134      0.1181
    147  CG        17.4390   13.4830    7.7610 C.2   134  ASN134      0.2629
    148  OD1       18.3060   14.0910    8.3930 O.2   134  ASN134     -0.2716
    149  ND2       16.8240   14.0160    6.6900 N.am  134  ASN134     -0.0877
    150  N         19.0120    7.7900   12.7770 N.3   136  LEU136     -0.1245
    151  CA        20.0100    7.7470   13.8350 C.3   136  LEU136      0.1561
    152  C         20.1220    6.3110   14.3640 C.2   136  LEU136      0.2260
    153  O         19.2170    5.5950   14.3320 O.2   136  LEU136     -0.2867
    154  CB        19.6650    8.7530   15.0000 C.3   136  LEU136      0.0270
    155  CG        19.6220   10.2500   14.5730 C.3   136  LEU136      0.0019
    156  CD1       19.1610   11.1200   15.7320 C.3   136  LEU136      0.0001
    157  CD2       21.0310   10.6640   14.0890 C.3   136  LEU136      0.0001
    158  N         14.7740   10.4290   12.5570 N.3   146  ALA146     -0.1231
    159  CA        15.0270   11.7440   13.1240 C.3   146  ALA146      0.1694
    160  C         14.7380   12.8440   12.1050 C.2   146  ALA146      0.2592
    161  O         14.4730   12.5970   10.9320 O.2   146  ALA146     -0.2718
    162  CB        16.4710   11.8690   13.5510 C.3   146  ALA146      0.0304
    163  N         14.8440   14.0760   12.5910 N.am  147  ASP147     -0.1974
    164  CA        14.6280   15.2910   11.8130 C.3   147  ASP147      0.1709
    165  C         13.2470   15.4250   11.2210 C.2   147  ASP147      0.2293
    166  O         13.0040   15.1370   10.0520 O.2   147  ASP147     -0.2864
    167  CB        15.6880   15.4440   10.7340 C.3   147  ASP147      0.1436
    168  CG        15.8110   16.8800   10.2580 C.2   147  ASP147      0.3671
    169  OD1       14.8420   17.6590   10.4600 O.co2 147  ASP147     -0.2456
    170  OD2       16.8790   17.2470    9.7030 O.co2 147  ASP147     -0.2456
@<TRIPOS>BOND
     1   128   126    1
     2   126   127    1
     3   126   123    1
     4   137   138    1
     5   141   138    1
     6   125   124    2
     7   123   124    1
     8   123   122    1
     9   149   147   am
    10   124   129   am
    11   138   139    1
    12   135   134   ar
    13   147   146    1
    14   147   148    2
    15   142   139   am
    16   142   143    1
    17   139   140    2
    18   129   130    1
    19   146   143    1
    20   130   131    1
    21   130   133    1
    22   143   144    1
    23   134   133    1
    24   134   136   ar
    25   132   131    2
    26    20    19    1
    27    20    21    2
    28   144   145    2
    29   170   168   ar
    30    19    18    1
    31   166   165    2
    32   168   169   ar
    33   168   167    1
    34    16    15    2
    35   120   121    1
    36   120   117    1
    37   167   164    1
    38   119   118    2
    39   118   117    1
    40    18    15   am
    41   161   160    2
    42    15    14    1
    43   165   164    1
    44   117   116    1
    45   164   163    1
    46   160   163   am
    47   160   159    1
    48    17    14    1
    49    14    13    1
    50   158   159    1
    51    13    11   am
    52   116   114   am
    53   150   151    1
    54   159   162    1
    55    50    49   ar
    56   114   115    2
    57   114   113    1
    58    11    10    1
    59    11    12    2
    60   151   152    1
    61   151   154    1
    62    10     9    1
    63    49    51   ar
    64    49    48    1
    65   157   155    1
    66    42    41    1
    67   153   152    2
    68    47    48    1
    69    47    44    1
    70   155   154    1
    71   155   156    1
    72     4     3    2
    73    44    43    1
    74    44    45    1
    75   107   106    2
    76   113   112    1
    77     9     3   am
    78    40    41    1
    79    40    39    1
    80     3     2    1
    81    28    26    1
    82   106   112   am
    83   106   105    1
    84    45    46    2
    85    58    56    1
    86   108   105    1
    87   108   109    1
    88    22    23    1
    89    39    38    1
    90    26    23    1
    91    26    27    1
    92     2     5    1
    93     2     1    1
    94   105   104    1
    95    56    57    1
    96    56    53    1
    97    52    53    1
    98   109   110    2
    99   109   111   am
   100    23    24    1
   101     5     6    1
   102    25    24    2
   103    38    35    1
   104    53    54    1
   105    94    93    1
   106   104    97   am
   107    91    92    1
   108    91    88    1
   109    55    54    2
   110    92    93    1
   111    90    89    2
   112    35    36    1
   113    35    34    1
   114     6     8    1
   115     6     7    1
   116    98    97    2
   117    36    37    2
   118    97    96    1
   119    89    88    1
   120    89    95   am
   121    88    87    1
   122    65    63    1
   123    64    63    1
   124    95    96    1
   125    87    77   am
   126    96    99    1
   127    33    30    1
   128    63    60    1
   129    73    72   ar
   130    69    68    2
   131    99   100    1
   132    83    81   ar
   133    83    85   ar
   134    77    78    2
   135    77    76    1
   136    86    85    1
   137    81    80   ar
   138    72    74   ar
   139    72    71    1
   140    30    31    1
   141    30    29    1
   142   100   101    1
   143    85    84   ar
   144    68    75   am
   145    68    67    1
   146    31    32    2
   147    76    75    1
   148    76    79    1
   149    70    71    1
   150    70    67    1
   151    60    59    1
   152    60    61    1
   153    66    61   am
   154    66    67    1
   155    80    79    1
   156    80    82   ar
   157    61    62    2
   158   103   101   ar
   159    84    82   ar
   160   101   102   ar
