@<TRIPOS>MOLECULE
tmp/1qplB01.pdb
 161 158 0 0 0
SMALL
GASTEIGER

@<TRIPOS>ATOM
      1  N         33.2450   33.2930   -6.8160 N.3    26  TYR26      -0.1241
      2  CA        32.5540   32.2530   -6.0740 C.3    26  TYR26       0.1605
      3  C         32.8500   30.8580   -6.5720 C.2    26  TYR26       0.2264
      4  O         33.4360   30.6680   -7.6370 O.2    26  TYR26      -0.2867
      5  CB        31.0490   32.4760   -6.1560 C.3    26  TYR26       0.0534
      6  CG        30.4870   32.2480   -7.5420 C.ar   26  TYR26      -0.0201
      7  CD1       30.1410   30.9680   -7.9750 C.ar   26  TYR26      -0.0009
      8  CD2       30.3170   33.3090   -8.4270 C.ar   26  TYR26      -0.0009
      9  CE1       29.6460   30.7520   -9.2520 C.ar   26  TYR26       0.0417
     10  CE2       29.8180   33.1030   -9.7130 C.ar   26  TYR26       0.0417
     11  CZ        29.4850   31.8250  -10.1180 C.ar   26  TYR26       0.1957
     12  OH        28.9990   31.6320  -11.3900 O.3    26  TYR26      -0.2866
     13  N         30.1100   22.4040   -8.7280 N.3    36  PHE36      -0.1227
     14  CA        29.4050   22.4100   -9.9990 C.3    36  PHE36       0.1736
     15  C         29.7500   23.6050  -10.8860 C.2    36  PHE36       0.2595
     16  O         29.5310   23.5650  -12.0970 O.2    36  PHE36      -0.2718
     17  CB        27.8890   22.3120   -9.7840 C.3    36  PHE36       0.0547
     18  CG        27.3190   23.3890   -8.9150 C.ar   36  PHE36      -0.0202
     19  CD1       27.0420   24.6440   -9.4310 C.ar   36  PHE36      -0.0042
     20  CD2       27.0070   23.1310   -7.5900 C.ar   36  PHE36      -0.0042
     21  CE1       26.4630   25.6230   -8.6390 C.ar   36  PHE36      -0.0003
     22  CE2       26.4250   24.1070   -6.7910 C.ar   36  PHE36      -0.0003
     23  CZ        26.1540   25.3530   -7.3160 C.ar   36  PHE36      -0.0000
     24  N         30.3260   24.6480  -10.2970 N.am   37  ASP37      -0.1974
     25  CA        30.6770   25.8490  -11.0500 C.3    37  ASP37       0.1709
     26  C         31.6390   26.7040  -10.2410 C.2    37  ASP37       0.2293
     27  O         31.6130   26.6720   -9.0100 O.2    37  ASP37      -0.2864
     28  CB        29.4090   26.6510  -11.3560 C.3    37  ASP37       0.1436
     29  CG        29.6640   27.8230  -12.2770 C.2    37  ASP37       0.3671
     30  OD1       29.8020   27.6090  -13.4970 O.co2  37  ASP37      -0.2456
     31  OD2       29.7190   28.9610  -11.7850 O.co2  37  ASP37      -0.2456
     32  N         37.3930   30.4560  -14.6500 N.3    42  ARG42      -0.1245
     33  CA        37.2760   31.3010  -15.8320 C.3    42  ARG42       0.1563
     34  C         38.1630   32.5450  -15.7510 C.2    42  ARG42       0.2260
     35  O         38.3120   33.2690  -16.7390 O.2    42  ARG42      -0.2867
     36  CB        35.8120   31.7100  -16.0510 C.3    42  ARG42       0.0307
     37  CG        34.8640   30.5460  -16.3440 C.3    42  ARG42       0.0489
     38  CD        33.4690   31.0340  -16.7250 C.3    42  ARG42       0.2205
     39  NE        32.7770   31.6850  -15.6130 N.pl3  42  ARG42      -0.0865
     40  CZ        32.0730   31.0370  -14.6880 C.cat  42  ARG42       0.5346
     41  NH1       31.9650   29.7130  -14.7330 N.pl3  42  ARG42       0.1354
     42  NH2       31.4750   31.7100  -13.7130 N.pl3  42  ARG42       0.1354
     43  N         32.3280   37.5130  -11.3150 N.3    46  PHE46      -0.1241
     44  CA        30.9290   37.7120  -11.6600 C.3    46  PHE46       0.1605
     45  C         30.4730   39.0820  -11.1800 C.2    46  PHE46       0.2264
     46  O         30.6190   39.4120  -10.0040 O.2    46  PHE46      -0.2867
     47  CB        30.0950   36.6110  -10.9980 C.3    46  PHE46       0.0534
     48  CG        28.6090   36.7860  -11.1440 C.ar   46  PHE46      -0.0203
     49  CD1       28.0450   37.1090  -12.3680 C.ar   46  PHE46      -0.0042
     50  CD2       27.7700   36.6030  -10.0520 C.ar   46  PHE46      -0.0042
     51  CE1       26.6670   37.2450  -12.5020 C.ar   46  PHE46      -0.0003
     52  CE2       26.3930   36.7370  -10.1790 C.ar   46  PHE46      -0.0003
     53  CZ        25.8420   37.0570  -11.4060 C.ar   46  PHE46      -0.0000
     54  N         16.3700   41.3850  -10.5630 N.3    53  GLN53      -0.1231
     55  CA        16.3430   39.9440  -10.8000 C.3    53  GLN53       0.1698
     56  C         17.6100   39.4590  -11.5080 C.2    53  GLN53       0.2592
     57  O         17.6280   39.3010  -12.7290 O.2    53  GLN53      -0.2718
     58  CB        15.1050   39.5580  -11.6260 C.3    53  GLN53       0.0381
     59  CG        14.9410   40.3350  -12.9410 C.3    53  GLN53       0.0905
     60  CD        14.5440   39.4500  -14.1190 C.2    53  GLN53       0.2608
     61  OE1       13.5780   38.6890  -14.0450 O.2    53  GLN53      -0.2717
     62  NE2       15.2890   39.5530  -15.2160 N.am   53  GLN53      -0.0878
     63  N         18.6780   39.2560  -10.7460 N.am   54  GLU54      -0.1966
     64  CA        19.9330   38.7840  -11.3220 C.3    54  GLU54       0.1733
     65  C         20.4700   37.5710  -10.5860 C.2    54  GLU54       0.2616
     66  O         21.0760   36.6880  -11.1890 O.2    54  GLU54      -0.2715
     67  CB        20.9900   39.8950  -11.3360 C.3    54  GLU54       0.0429
     68  CG        20.8810   40.8550  -12.5120 C.3    54  GLU54       0.1163
     69  CD        22.0740   41.7850  -12.6230 C.2    54  GLU54       0.3649
     70  OE1       23.1880   41.3060  -12.9450 O.co2  54  GLU54      -0.2457
     71  OE2       21.8920   42.9990  -12.3950 O.co2  54  GLU54      -0.2457
     72  N         20.2420   37.5300   -9.2810 N.am   55  VAL55      -0.1963
     73  CA        20.7210   36.4190   -8.4770 C.3    55  VAL55       0.1727
     74  C         19.5950   35.7250   -7.7290 C.2    55  VAL55       0.2616
     75  O         18.5500   36.3270   -7.4520 O.2    55  VAL55      -0.2715
     76  CB        21.7930   36.8780   -7.4530 C.3    55  VAL55       0.0290
     77  CG1       23.0820   37.2310   -8.1640 C.3    55  VAL55       0.0023
     78  CG2       21.2980   38.0680   -6.6530 C.3    55  VAL55       0.0023
     79  N         19.7910   34.4390   -7.4610 N.am   56  ILE56      -0.1977
     80  CA        18.8220   33.6510   -6.7090 C.3    56  ILE56       0.1596
     81  C         18.6700   34.3090   -5.3320 C.2    56  ILE56       0.2287
     82  O         19.6470   34.8290   -4.7840 O.2    56  ILE56      -0.2864
     83  CB        19.3050   32.1920   -6.5370 C.3    56  ILE56       0.0276
     84  CG1       20.7240   32.1620   -5.9590 C.3    56  ILE56       0.0022
     85  CG2       19.2550   31.4680   -7.8710 C.3    56  ILE56       0.0022
     86  CD1       21.3120   30.7710   -5.7900 C.3    56  ILE56       0.0001
     87  N         21.4900   34.5650   -2.7480 N.3    59  TRP59      -0.1241
     88  CA        22.5520   35.5230   -3.0080 C.3    59  TRP59       0.1605
     89  C         22.1390   36.9450   -2.6450 C.2    59  TRP59       0.2264
     90  O         22.9460   37.7060   -2.1120 O.2    59  TRP59      -0.2867
     91  CB        22.9920   35.4490   -4.4710 C.3    59  TRP59       0.0550
     92  CG        24.0100   34.3820   -4.7100 C.ar   59  TRP59       0.0003
     93  CD1       23.9100   33.0580   -4.3790 C.ar   59  TRP59       0.0946
     94  CD2       25.3160   34.5580   -5.2630 C.ar   59  TRP59       0.0152
     95  NE1       25.0750   32.4050   -4.6850 N.ar   59  TRP59      -0.2442
     96  CE2       25.9590   33.3020   -5.2270 C.ar   59  TRP59       0.0810
     97  CE3       26.0120   35.6600   -5.7830 C.ar   59  TRP59       0.0012
     98  CZ2       27.2630   33.1160   -5.6880 C.ar   59  TRP59       0.0191
     99  CZ3       27.3080   35.4730   -6.2410 C.ar   59  TRP59       0.0001
    100  CH2       27.9200   34.2100   -6.1890 C.ar   59  TRP59       0.0015
    101  N         16.9150   28.9410   -3.4520 N.3    81  ALA81      -0.1231
    102  CA        17.7100   28.7670   -4.6570 C.3    81  ALA81       0.1694
    103  C         16.7820   28.4660   -5.8240 C.2    81  ALA81       0.2592
    104  O         16.2020   29.3720   -6.4220 O.2    81  ALA81      -0.2718
    105  CB        18.7120   27.6330   -4.4630 C.3    81  ALA81       0.0304
    106  N         16.6400   27.1830   -6.1270 N.am   82  TYR82      -0.1976
    107  CA        15.7840   26.7180   -7.2020 C.3    82  TYR82       0.1639
    108  C         14.8360   25.7510   -6.5090 C.2    82  TYR82       0.2290
    109  O         13.6430   26.0220   -6.3840 O.2    82  TYR82      -0.2864
    110  CB        16.6190   25.9930   -8.2550 C.3    82  TYR82       0.0560
    111  CG        17.7910   26.8030   -8.7570 C.ar   82  TYR82      -0.0198
    112  CD1       17.6320   27.7370   -9.7790 C.ar   82  TYR82      -0.0009
    113  CD2       19.0620   26.6370   -8.2120 C.ar   82  TYR82      -0.0009
    114  CE1       18.7150   28.4890  -10.2470 C.ar   82  TYR82       0.0417
    115  CE2       20.1510   27.3810   -8.6720 C.ar   82  TYR82       0.0417
    116  CZ        19.9720   28.3050   -9.6900 C.ar   82  TYR82       0.1957
    117  OH        21.0490   29.0240  -10.1600 O.3    82  TYR82      -0.2866
    118  N         11.6460   23.6500   -9.2190 N.3    85  THR85      -0.1218
    119  CA        11.9490   23.2570  -10.5860 C.3    85  THR85       0.1862
    120  C         13.3780   22.7440  -10.7680 C.2    85  THR85       0.2287
    121  O         13.6840   22.0500  -11.7440 O.2    85  THR85      -0.2866
    122  CB        11.6820   24.4380  -11.5510 C.3    85  THR85       0.1770
    123  OG1       12.3920   25.6020  -11.1020 O.3    85  THR85      -0.2211
    124  CG2       10.1910   24.7620  -11.5880 C.3    85  THR85       0.0375
    125  N         17.1850   22.8920  -11.7230 N.3    87  HIS87      -0.1241
    126  CA        17.8350   23.6110  -12.8070 C.3    87  HIS87       0.1621
    127  C         18.4560   22.6320  -13.7810 C.2    87  HIS87       0.2264
    128  O         19.5070   22.0420  -13.4990 O.2    87  HIS87      -0.2867
    129  CB        18.8950   24.5720  -12.2870 C.3    87  HIS87       0.0745
    130  CG        19.5350   25.3900  -13.3650 C.ar   87  HIS87       0.0817
    131  ND1       18.9610   26.5440  -13.8570 N.ar   87  HIS87      -0.2268
    132  CD2       20.6830   25.2150  -14.0600 C.ar   87  HIS87       0.1154
    133  CE1       19.7320   27.0450  -14.8090 C.ar   87  HIS87       0.1986
    134  NE2       20.7820   26.2550  -14.9500 N.ar   87  HIS87      -0.2212
    135  N         22.9170   20.7450  -14.0390 N.3    90  ILE90      -0.1231
    136  CA        23.7330   20.4480  -12.8640 C.3    90  ILE90       0.1692
    137  C         23.0510   20.6520  -11.5240 C.2    90  ILE90       0.2591
    138  O         23.6160   20.3130  -10.4830 O.2    90  ILE90      -0.2718
    139  CB        25.0330   21.2750  -12.8620 C.3    90  ILE90       0.0266
    140  CG1       24.7960   22.6330  -13.5320 C.3    90  ILE90       0.0019
    141  CG2       26.1580   20.4880  -13.5150 C.3    90  ILE90       0.0020
    142  CD1       26.0460   23.4810  -13.6860 C.3    90  ILE90       0.0001
    143  N         21.8410   21.1980  -11.5370 N.am   91  ILE91      -0.1980
    144  CA        21.1350   21.4320  -10.2850 C.3    91  ILE91       0.1595
    145  C         19.8750   20.5750  -10.1390 C.2    91  ILE91       0.2287
    146  O         18.8170   20.9070  -10.6890 O.2    91  ILE91      -0.2864
    147  CB        20.7910   22.9370  -10.1080 C.3    91  ILE91       0.0276
    148  CG1       22.0630   23.7930  -10.1760 C.3    91  ILE91       0.0022
    149  CG2       20.0540   23.1660   -8.7860 C.3    91  ILE91       0.0022
    150  CD1       23.0820   23.5010   -9.0910 C.3    91  ILE91       0.0001
    151  N         27.9140   28.1390   -1.2760 N.3    99  PHE99      -0.1241
    152  CA        28.6670   29.0530   -2.1030 C.3    99  PHE99       0.1605
    153  C         29.8110   29.6870   -1.3490 C.2    99  PHE99       0.2264
    154  O         29.6250   30.2420   -0.2650 O.2    99  PHE99      -0.2867
    155  CB        27.7620   30.1560   -2.6190 C.3    99  PHE99       0.0534
    156  CG        26.8460   29.7220   -3.7050 C.ar   99  PHE99      -0.0203
    157  CD1       27.3100   29.6120   -5.0050 C.ar   99  PHE99      -0.0042
    158  CD2       25.5130   29.4540   -3.4400 C.ar   99  PHE99      -0.0042
    159  CE1       26.4610   29.2430   -6.0280 C.ar   99  PHE99      -0.0003
    160  CE2       24.6550   29.0830   -4.4600 C.ar   99  PHE99      -0.0003
    161  CZ        25.1300   28.9780   -5.7570 C.ar   99  PHE99      -0.0000
@<TRIPOS>BOND
     1    35    34    2
     2    38    37    1
     3    38    39    1
     4    37    36    1
     5    36    33    1
     6    33    34    1
     7    33    32    1
     8    39    40    2
     9    62    60   am
    10   134   133   ar
    11   134   132   ar
    12   133   131   ar
    13    41    40    1
    14    40    42    1
    15    60    61    2
    16    60    59    1
    17   132   130   ar
    18   135   136    1
    19   131   130   ar
    20   127   128    2
    21   127   126    1
    22   142   140    1
    23   140   139    1
    24   141   139    1
    25    30    29   ar
    26   130   129    1
    27    70    69   ar
    28    59    58    1
    29   136   139    1
    30   136   137    1
    31   126   129    1
    32   126   125    1
    33    57    56    2
    34    69    68    1
    35    69    71   ar
    36    68    67    1
    37    51    49   ar
    38    51    53   ar
    39    49    48   ar
    40    29    31   ar
    41    29    28    1
    42    16    15    2
    43   121   120    2
    44    44    43    1
    45    44    45    1
    46    44    47    1
    47    58    55    1
    48   124   122    1
    49   122   123    1
    50   122   119    1
    51   143   137   am
    52   143   144    1
    53   137   138    2
    54    56    55    1
    55    56    63   am
    56    53    52   ar
    57    12    11    1
    58    28    25    1
    59    67    64    1
    60    64    63    1
    61    64    65    1
    62    66    65    2
    63    45    46    2
    64    48    47    1
    65    48    50   ar
    66    25    24    1
    67    25    26    1
    68    15    24   am
    69    15    14    1
    70    55    54    1
    71   120   119    1
    72   146   145    2
    73    65    72   am
    74   119   118    1
    75   144   145    1
    76   144   147    1
    77   114   112   ar
    78   114   116   ar
    79    26    27    2
    80    52    50   ar
    81   148   147    1
    82   148   150    1
    83   117   116    1
    84    11    10   ar
    85    11     9   ar
    86   147   149    1
    87    14    17    1
    88    14    13    1
    89    17    18    1
    90   112   111   ar
    91    10     8   ar
    92   116   115   ar
    93    19    18   ar
    94    19    21   ar
    95    72    73    1
    96     9     7   ar
    97    18    20   ar
    98   111   110    1
    99   111   113   ar
   100   115   113   ar
   101    21    23   ar
   102    73    74    1
   103    73    76    1
   104     8     6   ar
   105   110   107    1
   106    77    76    1
   107     7     6   ar
   108    85    83    1
   109    74    79   am
   110    74    75    2
   111     4     3    2
   112    20    22   ar
   113     6     5    1
   114    79    80    1
   115    76    78    1
   116    23    22   ar
   117   107   108    1
   118   107   106    1
   119     1     2    1
   120    80    83    1
   121    80    81    1
   122     3     2    1
   123    83    84    1
   124   108   109    2
   125   104   103    2
   126    99   100   ar
   127    99    97   ar
   128   100    98   ar
   129     5     2    1
   130   106   103   am
   131   159   161   ar
   132   159   157   ar
   133    84    86    1
   134   103   102    1
   135    97    94   ar
   136   161   160   ar
   137    98    96   ar
   138    81    82    2
   139    94    96   ar
   140    94    92   ar
   141    96    95   ar
   142   157   156   ar
   143    92    91    1
   144    92    93   ar
   145    95    93   ar
   146   102   105    1
   147   102   101    1
   148    91    88    1
   149   160   158   ar
   150   156   158   ar
   151   156   155    1
   152    88    87    1
   153    88    89    1
   154    89    90    2
   155   155   152    1
   156   152   153    1
   157   152   151    1
   158   153   154    2
