@<TRIPOS>MOLECULE
tmp/1qpnE00.pdb
 164 154 0 0 0
SMALL
GASTEIGER

@<TRIPOS>ATOM
      1  N         39.5840   41.4600   25.7160 N.3   136  ASP136     -0.1225
      2  CA        40.0260   41.8320   24.3950 C.3   136  ASP136      0.1805
      3  C         40.4940   40.5870   23.5960 C.2   136  ASP136      0.2598
      4  O         40.3390   39.4460   24.0440 O.2   136  ASP136     -0.2718
      5  CB        41.1170   42.9130   24.4740 C.3   136  ASP136      0.1424
      6  CG        42.1590   42.6090   25.5140 C.2   136  ASP136      0.3668
      7  OD1       42.5510   41.4500   25.6590 O.co2 136  ASP136     -0.2456
      8  OD2       42.5850   43.5230   26.2160 O.co2 136  ASP136     -0.2456
      9  N         41.0260   40.8130   22.3980 N.am  137  THR137     -0.1939
     10  CA        41.4920   39.7560   21.5290 C.3   137  THR137      0.2028
     11  C         42.8890   40.1200   20.9640 C.2   137  THR137      0.2642
     12  O         43.5860   41.0060   21.4800 O.2   137  THR137     -0.2714
     13  CB        40.4580   39.5430   20.3820 C.3   137  THR137      0.1808
     14  OG1       40.4480   40.6790   19.5150 O.3   137  THR137     -0.2208
     15  CG2       39.0730   39.3680   20.9440 C.3   137  THR137      0.0379
     16  N         43.3440   39.3540   19.9830 N.am  138  ARG138     -0.1963
     17  CA        44.6180   39.6130   19.3450 C.3   138  ARG138      0.1729
     18  C         44.3560   40.3880   18.0710 C.2   138  ARG138      0.2616
     19  O         45.2130   40.4940   17.1870 O.2   138  ARG138     -0.2715
     20  CB        45.3610   38.3060   19.0400 C.3   138  ARG138      0.0348
     21  CG        46.0060   37.6150   20.2860 C.3   138  ARG138      0.0492
     22  CD        47.0810   36.6000   19.8510 C.3   138  ARG138      0.2205
     23  NE        46.4660   35.6070   19.0020 N.pl3 138  ARG138     -0.0865
     24  CZ        46.8590   35.2800   17.7800 C.cat 138  ARG138      0.5346
     25  NH1       47.9060   35.8340   17.2160 N.pl3 138  ARG138      0.1354
     26  NH2       46.1110   34.4730   17.0640 N.pl3 138  ARG138      0.1354
     27  N         43.1480   40.9130   17.9550 N.am  139  LYS139     -0.1977
     28  CA        42.8090   41.6800   16.7820 C.3   139  LYS139      0.1596
     29  C         43.2260   43.0970   17.1110 C.2   139  LYS139      0.2287
     30  O         42.3840   43.9690   17.3550 O.2   139  LYS139     -0.2864
     31  CB        41.3230   41.6110   16.5120 C.3   139  LYS139      0.0298
     32  CG        40.8170   40.2350   16.3630 C.3   139  LYS139      0.0038
     33  CD        39.5770   40.2430   15.5540 C.3   139  LYS139      0.0206
     34  CE        38.9740   38.8750   15.6160 C.3   139  LYS139      0.1093
     35  NZ        38.1240   38.6100   14.3980 N.3   139  LYS139     -0.1314
     36  N         43.1750   39.4830   27.4900 N.3   160  HIS160     -0.1226
     37  CA        43.0880   38.0650   27.2470 C.3   160  HIS160      0.1752
     38  C         44.4340   37.5400   26.7520 C.2   160  HIS160      0.2595
     39  O         45.3700   37.3770   27.5530 O.2   160  HIS160     -0.2718
     40  CB        41.9510   37.7450   26.2850 C.3   160  HIS160      0.0759
     41  CG        41.6580   36.2820   26.1670 C.ar  160  HIS160      0.0818
     42  ND1       40.7610   35.7750   25.2510 N.ar  160  HIS160     -0.2268
     43  CD2       42.1820   35.2150   26.8140 C.ar  160  HIS160      0.1154
     44  CE1       40.7480   34.4560   25.3360 C.ar  160  HIS160      0.1986
     45  NE2       41.6040   34.0900   26.2750 N.ar  160  HIS160     -0.2212
     46  N         44.5720   37.2760   25.4570 N.am  161  ARG161     -0.1980
     47  CA        45.8410   36.7270   24.9920 C.3   161  ARG161      0.1597
     48  C         46.7800   37.7770   24.4510 C.2   161  ARG161      0.2287
     49  O         46.3780   38.6300   23.6530 O.2   161  ARG161     -0.2864
     50  CB        45.5990   35.6090   23.9820 C.3   161  ARG161      0.0334
     51  CG        44.9490   34.4080   24.6450 C.3   161  ARG161      0.0492
     52  CD        45.6840   33.1560   24.3220 C.3   161  ARG161      0.2205
     53  NE        45.4860   32.8550   22.9150 N.pl3 161  ARG161     -0.0865
     54  CZ        46.4290   32.3750   22.1180 C.cat 161  ARG161      0.5346
     55  NH1       47.6370   32.1460   22.6130 N.pl3 161  ARG161      0.1354
     56  NH2       46.1630   32.1030   20.8380 N.pl3 161  ARG161      0.1354
     57  N         45.3010   27.5090   22.2510 N.3   169  LEU169     -0.1245
     58  CA        43.9490   27.7490   21.7640 C.3   169  LEU169      0.1561
     59  C         43.6620   26.8220   20.5850 C.2   169  LEU169      0.2260
     60  O         44.2510   26.9790   19.5380 O.2   169  LEU169     -0.2867
     61  CB        43.8230   29.2130   21.3650 C.3   169  LEU169      0.0270
     62  CG        42.4760   29.7870   20.9310 C.3   169  LEU169      0.0019
     63  CD1       42.2850   29.5260   19.5040 C.3   169  LEU169      0.0001
     64  CD2       41.3280   29.2240   21.7270 C.3   169  LEU169      0.0001
     65  N         42.3630   26.3370   25.6810 N.3   198  GLU198     -0.1245
     66  CA        41.1980   27.1110   25.3280 C.3   198  GLU198      0.1567
     67  C         40.7430   26.5060   24.0280 C.2   198  GLU198      0.2260
     68  O         41.5220   26.3770   23.0950 O.2   198  GLU198     -0.2867
     69  CB        41.5460   28.5820   25.1320 C.3   198  GLU198      0.0388
     70  CG        42.1250   29.2310   26.3770 C.3   198  GLU198      0.1160
     71  CD        42.4850   30.6920   26.1900 C.2   198  GLU198      0.3649
     72  OE1       42.3850   31.1840   25.0400 O.co2 198  GLU198     -0.2457
     73  OE2       42.8630   31.3330   27.2050 O.co2 198  GLU198     -0.2457
     74  N         37.9670   26.5990   20.9060 N.3   200  GLU200     -0.1245
     75  CA        36.9730   27.3240   20.1550 C.3   200  GLU200      0.1567
     76  C         35.9450   26.3620   19.5260 C.2   200  GLU200      0.2260
     77  O         36.3060   25.4780   18.7410 O.2   200  GLU200     -0.2867
     78  CB        37.6980   28.1260   19.0740 C.3   200  GLU200      0.0388
     79  CG        36.9060   29.2680   18.5140 C.3   200  GLU200      0.1160
     80  CD        37.6980   30.0920   17.5350 C.2   200  GLU200      0.3649
     81  OE1       37.7170   29.6960   16.3480 O.co2 200  GLU200     -0.2457
     82  OE2       38.2890   31.1270   17.9480 O.co2 200  GLU200     -0.2457
     83  N         35.4250   28.7860   23.8620 N.3   219  LEU219     -0.1245
     84  CA        35.0170   29.9700   23.1310 C.3   219  LEU219      0.1561
     85  C         33.8090   29.6290   22.2530 C.2   219  LEU219      0.2260
     86  O         33.8880   28.8040   21.3410 O.2   219  LEU219     -0.2867
     87  CB        36.1550   30.4760   22.2410 C.3   219  LEU219      0.0270
     88  CG        36.7680   31.8340   22.5700 C.3   219  LEU219      0.0019
     89  CD1       38.0980   31.6310   23.2860 C.3   219  LEU219      0.0001
     90  CD2       36.9740   32.5990   21.2630 C.3   219  LEU219      0.0001
     91  N         31.9520   30.3730   19.4450 N.3   221  ASP221     -0.1225
     92  CA        32.1010   31.1360   18.2290 C.3   221  ASP221      0.1805
     93  C         30.8080   31.3000   17.4420 C.2   221  ASP221      0.2597
     94  O         30.3270   30.3500   16.8050 O.2   221  ASP221     -0.2718
     95  CB        33.1590   30.4740   17.3660 C.3   221  ASP221      0.1424
     96  CG        33.3560   31.1770   16.0930 C.2   221  ASP221      0.3668
     97  OD1       33.7330   32.3760   16.1570 O.co2 221  ASP221     -0.2456
     98  OD2       33.1130   30.5440   15.0350 O.co2 221  ASP221     -0.2456
     99  N         30.3050   32.5390   17.4360 N.am  222  ASN222     -0.1974
    100  CA        29.0660   32.9370   16.7400 C.3   222  ASN222      0.1688
    101  C         27.8210   32.1680   17.1280 C.2   222  ASN222      0.2292
    102  O         27.1310   31.6300   16.2630 O.2   222  ASN222     -0.2864
    103  CB        29.2210   32.8460   15.2330 C.3   222  ASN222      0.1181
    104  CG        30.1480   33.8790   14.6830 C.2   222  ASN222      0.2629
    105  OD1       29.7750   35.0230   14.4850 O.2   222  ASN222     -0.2716
    106  ND2       31.3670   33.4800   14.4150 N.am  222  ASN222     -0.0877
    107  N         33.1830   31.7380   27.1040 N.3   245  GLU245     -0.1245
    108  CA        33.3800   33.0900   26.5800 C.3   245  GLU245      0.1567
    109  C         32.7070   33.2710   25.2200 C.2   245  GLU245      0.2260
    110  O         32.9660   32.5110   24.2910 O.2   245  GLU245     -0.2867
    111  CB        34.8900   33.3930   26.4920 C.3   245  GLU245      0.0388
    112  CG        35.2940   34.6680   25.7930 C.3   245  GLU245      0.1160
    113  CD        36.7300   35.0780   26.0930 C.2   245  GLU245      0.3649
    114  OE1       37.6420   34.2410   25.9860 O.co2 245  GLU245     -0.2457
    115  OE2       36.9570   36.2490   26.4430 O.co2 245  GLU245     -0.2457
    116  N         32.1210   34.8810   21.6650 N.3   247  SER247     -0.1202
    117  CA        32.9970   35.5260   20.6890 C.3   247  SER247      0.2020
    118  C         32.3640   35.5430   19.3170 C.2   247  SER247      0.2619
    119  O         31.8140   34.5440   18.8770 O.2   247  SER247     -0.2717
    120  CB        34.3020   34.7480   20.5940 C.3   247  SER247      0.2103
    121  OG        35.3370   35.6210   20.2630 O.3   247  SER247     -0.2182
    122  N         32.3860   36.6730   18.6410 N.am  248  GLY248     -0.1956
    123  CA        31.8040   36.6820   17.3310 C.3   248  GLY248      0.1869
    124  C         30.7120   37.6750   17.0720 C.2   248  GLY248      0.2309
    125  O         30.9830   38.8400   16.7510 O.2   248  GLY248     -0.2863
    126  N         28.9100   39.7680   18.5930 N.3   250  LEU250     -0.1245
    127  CA        28.6550   40.7270   19.6420 C.3   250  LEU250      0.1561
    128  C         28.5920   42.1770   19.2180 C.2   250  LEU250      0.2260
    129  O         29.4500   42.6610   18.4830 O.2   250  LEU250     -0.2867
    130  CB        29.7120   40.5600   20.7170 C.3   250  LEU250      0.0270
    131  CG        29.4540   39.5420   21.8420 C.3   250  LEU250      0.0019
    132  CD1       28.5030   38.4250   21.4270 C.3   250  LEU250      0.0001
    133  CD2       30.7590   38.9910   22.2960 C.3   250  LEU250      0.0001
    134  N         34.1830   38.3160   24.4570 N.3   267  ALA267     -0.1231
    135  CA        35.4320   38.6230   23.7460 C.3   267  ALA267      0.1694
    136  C         35.1040   39.6360   22.6570 C.2   267  ALA267      0.2592
    137  O         34.5100   39.2810   21.6260 O.2   267  ALA267     -0.2718
    138  CB        36.0190   37.3510   23.1390 C.3   267  ALA267      0.0304
    139  N         35.5590   40.8740   22.8300 N.am  268  VAL268     -0.1966
    140  CA        35.1910   41.9240   21.8930 C.3   268  VAL268      0.1727
    141  C         36.3210   42.4330   21.0260 C.2   268  VAL268      0.2617
    142  O         37.0460   43.3230   21.4100 O.2   268  VAL268     -0.2715
    143  CB        34.5430   43.1250   22.6640 C.3   268  VAL268      0.0290
    144  CG1       33.8810   44.1020   21.7070 C.3   268  VAL268      0.0023
    145  CG2       33.5270   42.6220   23.6500 C.3   268  VAL268      0.0023
    146  N         36.3720   41.9740   19.7920 N.am  269  GLY269     -0.1940
    147  CA        37.4340   42.4200   18.9240 C.3   269  GLY269      0.2014
    148  C         37.3450   43.8900   18.5690 C.2   269  GLY269      0.2638
    149  O         38.3580   44.5320   18.2930 O.2   269  GLY269     -0.2714
    150  N         36.1350   44.4380   18.5600 N.am  270  ALA270     -0.1977
    151  CA        35.9090   45.8420   18.1780 C.3   270  ALA270      0.1597
    152  C         36.5580   46.8780   19.0990 C.2   270  ALA270      0.2287
    153  O         36.6840   48.0340   18.7440 O.2   270  ALA270     -0.2864
    154  CB        34.4280   46.1170   18.0380 C.3   270  ALA270      0.0319
    155  N         40.1560   46.6960   17.1400 N.3   273  HIS273     -0.1241
    156  CA        40.1100   46.9300   15.6760 C.3   273  HIS273      0.1621
    157  C         38.8910   47.8680   15.6050 C.2   273  HIS273      0.2264
    158  O         38.1970   47.9940   16.5960 O.2   273  HIS273     -0.2867
    159  CB        39.9070   45.6310   14.8620 C.3   273  HIS273      0.0745
    160  CG        38.5730   44.9580   15.0400 C.ar  273  HIS273      0.0817
    161  ND1       37.3790   45.5160   14.6280 N.ar  273  HIS273     -0.2268
    162  CD2       38.2600   43.7150   15.4820 C.ar  273  HIS273      0.1154
    163  CE1       36.3960   44.6530   14.8040 C.ar  273  HIS273      0.1986
    164  NE2       36.9060   43.5500   15.3170 N.ar  273  HIS273     -0.2212
@<TRIPOS>BOND
     1    35    34    1
     2   106   104   am
     3   105   104    2
     4   161   163   ar
     5   161   160   ar
     6   104   103    1
     7   163   164   ar
     8   159   160    1
     9   159   156    1
    10    98    96   ar
    11   160   162   ar
    12   103   100    1
    13   164   162   ar
    14    33    34    1
    15    33    32    1
    16   157   156    1
    17   157   158    2
    18   156   155    1
    19    96    97   ar
    20    96    95    1
    21   102   101    2
    22    81    80   ar
    23    32    31    1
    24    31    28    1
    25   100   101    1
    26   100    99    1
    27   125   124    2
    28    28    29    1
    29    28    27    1
    30    94    93    2
    31    26    24    1
    32   124   123    1
    33    29    30    2
    34    19    18    2
    35    25    24    1
    36   123   122    1
    37    95    92    1
    38    99    93   am
    39    93    92    1
    40    80    82   ar
    41    80    79    1
    42    24    23    2
    43    27    18   am
    44   154   151    1
    45    18    17    1
    46   151   150    1
    47   151   152    1
    48    92    91    1
    49   149   148    2
    50   129   128    2
    51    79    78    1
    52   150   148   am
    53   148   147    1
    54   126   127    1
    55   122   118   am
    56    77    76    2
    57   153   152    2
    58   119   118    2
    59   147   146    1
    60    23    22    1
    61    20    17    1
    62    20    21    1
    63    78    75    1
    64   128   127    1
    65   118   117    1
    66    17    16    1
    67    63    62    1
    68    14    13    1
    69    76    75    1
    70    60    59    2
    71   127   130    1
    72   146   141   am
    73    22    21    1
    74    16    11   am
    75    75    74    1
    76   121   120    1
    77    13    15    1
    78    13    10    1
    79    59    58    1
    80   120   117    1
    81   117   116    1
    82   130   131    1
    83    56    54    1
    84    62    61    1
    85    62    64    1
    86    11    12    2
    87    11    10    1
    88   141   142    2
    89   141   140    1
    90    90    88    1
    91    86    85    2
    92    61    58    1
    93   132   131    1
    94    10     9    1
    95   137   136    2
    96   144   143    1
    97    58    57    1
    98   131   133    1
    99   140   143    1
   100   140   139    1
   101    54    55    1
   102    54    53    2
   103    87    88    1
   104    87    84    1
   105    85    84    1
   106     9     3   am
   107    88    89    1
   108   136   139   am
   109   136   135    1
   110   143   145    1
   111    53    52    1
   112    68    67    2
   113    84    83    1
   114   138   135    1
   115     3     4    2
   116     3     2    1
   117    49    48    2
   118   135   134    1
   119    50    51    1
   120    50    47    1
   121    67    66    1
   122   110   109    2
   123    52    51    1
   124     2     5    1
   125     2     1    1
   126    48    47    1
   127     5     6    1
   128    47    46    1
   129    72    71   ar
   130    69    66    1
   131    69    70    1
   132   109   108    1
   133    42    44   ar
   134    42    41   ar
   135    66    65    1
   136    44    45   ar
   137    46    38   am
   138     6     7   ar
   139     6     8   ar
   140   112   113    1
   141   112   111    1
   142   114   113   ar
   143   113   115   ar
   144    41    40    1
   145    41    43   ar
   146    71    70    1
   147    71    73   ar
   148    45    43   ar
   149    40    37    1
   150   111   108    1
   151   108   107    1
   152    38    37    1
   153    38    39    2
   154    37    36    1
