@<TRIPOS>MOLECULE
tmp/1qpqE00.pdb
 84 78 0 0 0
SMALL
GASTEIGER

@<TRIPOS>ATOM
      1  N         40.9690   40.7320   22.2870 N.3   137  THR137     -0.1203
      2  CA        41.3820   39.6590   21.4090 C.3   137  THR137      0.1994
      3  C         42.7840   39.9940   20.8640 C.2   137  THR137      0.2618
      4  O         43.5190   40.8850   21.3860 O.2   137  THR137     -0.2717
      5  CB        40.3840   39.5140   20.2250 C.3   137  THR137      0.1784
      6  OG1       40.4040   40.7030   19.4300 O.3   137  THR137     -0.2211
      7  CG2       38.9650   39.3130   20.7130 C.3   137  THR137      0.0376
      8  N         43.1820   39.2570   19.8400 N.am  138  ARG138     -0.1965
      9  CA        44.4740   39.5180   19.2470 C.3   138  ARG138      0.1729
     10  C         44.2630   40.3180   17.9910 C.2   138  ARG138      0.2616
     11  O         45.1340   40.3600   17.1310 O.2   138  ARG138     -0.2715
     12  CB        45.2100   38.2190   18.9470 C.3   138  ARG138      0.0348
     13  CG        45.9480   37.5810   20.1560 C.3   138  ARG138      0.0492
     14  CD        46.9160   36.5300   19.6210 C.3   138  ARG138      0.2205
     15  NE        46.1900   35.6860   18.6720 N.pl3 138  ARG138     -0.0865
     16  CZ        46.5960   35.3750   17.4530 C.cat 138  ARG138      0.5346
     17  NH1       47.7470   35.8060   17.0030 N.pl3 138  ARG138      0.1354
     18  NH2       45.7930   34.7080   16.6500 N.pl3 138  ARG138      0.1354
     19  N         43.0840   40.9420   17.8740 N.am  139  LYS139     -0.1977
     20  CA        42.7730   41.7560   16.7060 C.3   139  LYS139      0.1596
     21  C         43.1800   43.1810   17.0190 C.2   139  LYS139      0.2287
     22  O         42.3500   44.0710   17.1530 O.2   139  LYS139     -0.2864
     23  CB        41.2940   41.6750   16.3890 C.3   139  LYS139      0.0298
     24  CG        40.8320   40.2870   16.2020 C.3   139  LYS139      0.0038
     25  CD        39.4350   40.2640   15.7120 C.3   139  LYS139      0.0206
     26  CE        38.8690   38.9050   15.9450 C.3   139  LYS139      0.1093
     27  NZ        37.8400   38.6460   14.9170 N.3   139  LYS139     -0.1314
     28  N         43.0540   39.3670   27.3520 N.3   160  HIS160     -0.1226
     29  CA        43.0260   37.9590   27.0090 C.3   160  HIS160      0.1752
     30  C         44.5400   37.6670   26.8180 C.2   160  HIS160      0.2595
     31  O         45.3870   38.3320   27.4230 O.2   160  HIS160     -0.2718
     32  CB        42.2350   37.7900   25.7170 C.3   160  HIS160      0.0759
     33  CG        41.7360   36.4030   25.4670 C.ar  160  HIS160      0.0818
     34  ND1       40.4270   36.1430   25.1240 N.ar  160  HIS160     -0.2268
     35  CD2       42.3670   35.2070   25.4730 C.ar  160  HIS160      0.1154
     36  CE1       40.2740   34.8470   24.9330 C.ar  160  HIS160      0.1986
     37  NE2       41.4350   34.2570   25.1380 N.ar  160  HIS160     -0.2212
     38  N         44.9020   36.7090   25.9800 N.am  161  ARG161     -0.1980
     39  CA        46.3150   36.4210   25.8080 C.3   161  ARG161      0.1597
     40  C         46.9860   37.5510   25.0040 C.2   161  ARG161      0.2287
     41  O         46.3190   38.2490   24.2470 O.2   161  ARG161     -0.2864
     42  CB        46.5150   35.0290   25.1660 C.3   161  ARG161      0.0334
     43  CG        45.9800   34.9030   23.7980 C.3   161  ARG161      0.0492
     44  CD        46.0380   33.4910   23.3260 C.3   161  ARG161      0.2205
     45  NE        45.6180   33.4420   21.9330 N.pl3 161  ARG161     -0.0865
     46  CZ        45.9750   32.5010   21.0710 C.cat 161  ARG161      0.5346
     47  NH1       46.7760   31.5250   21.4650 N.pl3 161  ARG161      0.1354
     48  NH2       45.5400   32.5360   19.8120 N.pl3 161  ARG161      0.1354
     49  N         44.9170   28.3800   22.2390 N.3   169  LEU169     -0.1245
     50  CA        43.5560   28.6600   21.8290 C.3   169  LEU169      0.1561
     51  C         43.3370   27.8770   20.5770 C.2   169  LEU169      0.2260
     52  O         43.8280   28.2510   19.5100 O.2   169  LEU169     -0.2867
     53  CB        43.3220   30.1470   21.5270 C.3   169  LEU169      0.0270
     54  CG        41.9000   30.6890   21.7790 C.3   169  LEU169      0.0019
     55  CD1       41.8610   32.1430   21.4460 C.3   169  LEU169      0.0001
     56  CD2       40.8380   29.9580   21.0030 C.3   169  LEU169      0.0001
     57  N         41.5630   26.9790   17.5060 N.3   171  LYS171     -0.1245
     58  CA        40.6880   27.6270   16.5440 C.3   171  LYS171      0.1561
     59  C         40.1800   26.6790   15.4670 C.2   171  LYS171      0.2260
     60  O         40.5900   25.5320   15.3670 O.2   171  LYS171     -0.2867
     61  CB        41.4550   28.7720   15.9050 C.3   171  LYS171      0.0271
     62  CG        41.8310   29.8080   16.9230 C.3   171  LYS171      0.0035
     63  CD        42.6740   30.9240   16.3560 C.3   171  LYS171      0.0206
     64  CE        42.5680   32.1860   17.2090 C.3   171  LYS171      0.1093
     65  NZ        41.1810   32.7190   17.1940 N.3   171  LYS171     -0.1314
     66  N         35.2620   28.7990   23.9100 N.3   219  LEU219     -0.1245
     67  CA        34.8860   30.0070   23.2280 C.3   219  LEU219      0.1561
     68  C         33.7800   29.6530   22.2730 C.2   219  LEU219      0.2260
     69  O         33.9710   28.9100   21.3200 O.2   219  LEU219     -0.2867
     70  CB        36.0800   30.6080   22.4850 C.3   219  LEU219      0.0270
     71  CG        35.8940   31.9700   21.7780 C.3   219  LEU219      0.0019
     72  CD1       37.1820   32.8020   21.7870 C.3   219  LEU219      0.0001
     73  CD2       35.4310   31.7050   20.3470 C.3   219  LEU219      0.0001
     74  N         32.1300   34.9690   21.7420 N.3   247  SER247     -0.1217
     75  CA        32.8790   35.7440   20.7870 C.3   247  SER247      0.1889
     76  C         32.0850   35.5840   19.5210 C.2   247  SER247      0.2288
     77  O         31.4920   34.5250   19.3030 O.2   247  SER247     -0.2866
     78  CB        34.3000   35.1740   20.6220 C.3   247  SER247      0.2089
     79  OG        35.0140   35.8450   19.5910 O.3   247  SER247     -0.2183
     80  N         34.2950   38.2170   24.6490 N.3   267  ALA267     -0.1245
     81  CA        35.5110   38.6070   23.9230 C.3   267  ALA267      0.1562
     82  C         35.0880   39.5580   22.8120 C.2   267  ALA267      0.2260
     83  O         34.3790   39.1650   21.8940 O.2   267  ALA267     -0.2867
     84  CB        36.2100   37.4030   23.3400 C.3   267  ALA267      0.0290
@<TRIPOS>BOND
     1    27    26    1
     2    60    59    2
     3    59    58    1
     4    25    26    1
     5    25    24    1
     6    61    58    1
     7    61    62    1
     8    24    23    1
     9    63    62    1
    10    63    64    1
    11    23    20    1
    12    58    57    1
    13    18    16    1
    14    20    21    1
    15    20    19    1
    16    17    16    1
    17    21    22    2
    18    11    10    2
    19    65    64    1
    20    16    15    2
    21    19    10   am
    22    10     9    1
    23    15    14    1
    24    12     9    1
    25    12    13    1
    26     9     8    1
    27    77    76    2
    28     6     5    1
    29    52    51    2
    30    76    75    1
    31    79    78    1
    32    14    13    1
    33    48    46    1
    34     8     3   am
    35     5     7    1
    36     5     2    1
    37    73    71    1
    38    51    50    1
    39    78    75    1
    40    75    74    1
    41     3     4    2
    42     3     2    1
    43    56    54    1
    44    46    47    1
    45    46    45    2
    46    69    68    2
    47     2     1    1
    48    55    54    1
    49    53    54    1
    50    53    50    1
    51    71    72    1
    52    71    70    1
    53    50    49    1
    54    83    82    2
    55    45    44    1
    56    68    67    1
    57    70    67    1
    58    82    81    1
    59    67    66    1
    60    44    43    1
    61    84    81    1
    62    43    42    1
    63    81    80    1
    64    41    40    2
    65    36    34   ar
    66    36    37   ar
    67    40    39    1
    68    34    33   ar
    69    37    35   ar
    70    42    39    1
    71    33    35   ar
    72    33    32    1
    73    32    29    1
    74    39    38    1
    75    38    30   am
    76    30    29    1
    77    30    31    2
    78    29    28    1
