@<TRIPOS>MOLECULE
tmp/1qprE01.pdb
 123 113 0 0 0
SMALL
GASTEIGER

@<TRIPOS>ATOM
      1  N         41.0030   40.7170   22.2720 N.3   137  THR137     -0.1218
      2  CA        41.4470   39.6850   21.3840 C.3   137  THR137      0.1862
      3  C         42.8210   40.0590   20.7870 C.2   137  THR137      0.2287
      4  O         43.4630   41.0380   21.1750 O.2   137  THR137     -0.2866
      5  CB        40.4560   39.5550   20.2210 C.3   137  THR137      0.1770
      6  OG1       40.4890   40.7590   19.4570 O.3   137  THR137     -0.2211
      7  CG2       39.0520   39.3590   20.7050 C.3   137  THR137      0.0375
      8  N         43.1080   40.9180   17.7760 N.3   139  LYS139     -0.1245
      9  CA        42.7660   41.7560   16.6390 C.3   139  LYS139      0.1561
     10  C         43.1900   43.1790   16.9830 C.2   139  LYS139      0.2260
     11  O         42.3680   44.0690   17.1380 O.2   139  LYS139     -0.2867
     12  CB        41.2620   41.6840   16.3700 C.3   139  LYS139      0.0271
     13  CG        40.7590   40.2930   16.1130 C.3   139  LYS139      0.0035
     14  CD        39.3340   40.3340   15.6640 C.3   139  LYS139      0.0206
     15  CE        38.8260   38.9440   15.3250 C.3   139  LYS139      0.1093
     16  NZ        38.0050   38.8940   14.0560 N.3   139  LYS139     -0.1314
     17  N         44.9110   28.3400   22.1640 N.3   169  LEU169     -0.1245
     18  CA        43.5540   28.6540   21.7980 C.3   169  LEU169      0.1561
     19  C         43.3220   27.8880   20.5500 C.2   169  LEU169      0.2260
     20  O         43.8460   28.2850   19.5050 O.2   169  LEU169     -0.2867
     21  CB        43.3790   30.1510   21.5230 C.3   169  LEU169      0.0270
     22  CG        41.9870   30.7590   21.8320 C.3   169  LEU169      0.0019
     23  CD1       41.9900   32.2010   21.4980 C.3   169  LEU169      0.0001
     24  CD2       40.8690   30.0990   21.0630 C.3   169  LEU169      0.0001
     25  N         41.4970   26.9090   17.3980 N.3   171  LYS171     -0.1231
     26  CA        40.6050   27.5590   16.4620 C.3   171  LYS171      0.1693
     27  C         40.0790   26.6440   15.3860 C.2   171  LYS171      0.2592
     28  O         40.5540   25.5320   15.2140 O.2   171  LYS171     -0.2718
     29  CB        41.3600   28.7350   15.8410 C.3   171  LYS171      0.0285
     30  CG        41.7270   29.7850   16.8830 C.3   171  LYS171      0.0035
     31  CD        42.6000   30.8920   16.3640 C.3   171  LYS171      0.0206
     32  CE        42.4460   32.1650   17.1970 C.3   171  LYS171      0.1093
     33  NZ        41.1650   32.8940   16.9050 N.3   171  LYS171     -0.1314
     34  N         39.1580   27.1470   14.5900 N.am  172  ASP172     -0.1974
     35  CA        38.5780   26.3600   13.5140 C.3   172  ASP172      0.1709
     36  C         39.5880   25.7260   12.5450 C.2   172  ASP172      0.2293
     37  O         39.4450   24.5590   12.1850 O.2   172  ASP172     -0.2864
     38  CB        37.5020   27.1810   12.7620 C.3   172  ASP172      0.1436
     39  CG        37.9560   28.6060   12.3920 C.2   172  ASP172      0.3671
     40  OD1       39.0810   29.0310   12.7430 O.co2 172  ASP172     -0.2456
     41  OD2       37.1650   29.3140   11.7320 O.co2 172  ASP172     -0.2456
     42  N         37.8080   26.6140   20.8700 N.3   200  GLU200     -0.1245
     43  CA        36.7520   27.2890   20.1580 C.3   200  GLU200      0.1567
     44  C         35.7020   26.3160   19.5380 C.2   200  GLU200      0.2260
     45  O         36.0470   25.4430   18.7470 O.2   200  GLU200     -0.2867
     46  CB        37.4580   28.1380   19.0870 C.3   200  GLU200      0.0388
     47  CG        36.5880   28.9030   18.1710 C.3   200  GLU200      0.1160
     48  CD        37.4010   29.7490   17.2530 C.2   200  GLU200      0.3649
     49  OE1       38.1740   30.6000   17.7630 O.co2 200  GLU200     -0.2457
     50  OE2       37.2500   29.5640   16.0260 O.co2 200  GLU200     -0.2457
     51  N         35.3460   28.8640   23.9360 N.3   219  LEU219     -0.1245
     52  CA        34.9400   30.0720   23.2310 C.3   219  LEU219      0.1561
     53  C         33.7950   29.6900   22.2980 C.2   219  LEU219      0.2260
     54  O         33.9650   28.9030   21.3830 O.2   219  LEU219     -0.2867
     55  CB        36.1230   30.6950   22.4750 C.3   219  LEU219      0.0270
     56  CG        35.9290   32.0500   21.7600 C.3   219  LEU219      0.0019
     57  CD1       37.2240   32.8230   21.7260 C.3   219  LEU219      0.0001
     58  CD2       35.4170   31.8590   20.3370 C.3   219  LEU219      0.0001
     59  N         31.7240   30.3740   19.5750 N.3   221  ASP221     -0.1225
     60  CA        31.8430   31.1690   18.3760 C.3   221  ASP221      0.1805
     61  C         30.5750   31.3580   17.5580 C.2   221  ASP221      0.2597
     62  O         30.0780   30.4110   16.9130 O.2   221  ASP221     -0.2718
     63  CB        32.9700   30.6250   17.5030 C.3   221  ASP221      0.1424
     64  CG        33.1810   31.4470   16.2600 C.2   221  ASP221      0.3668
     65  OD1       33.2700   32.6920   16.3750 O.co2 221  ASP221     -0.2456
     66  OD2       33.2650   30.8430   15.1660 O.co2 221  ASP221     -0.2456
     67  N         30.1050   32.6110   17.5460 N.am  222  ASN222     -0.1974
     68  CA        28.9110   33.0320   16.8230 C.3   222  ASN222      0.1688
     69  C         27.6370   32.2910   17.2140 C.2   222  ASN222      0.2292
     70  O         26.8630   31.8490   16.3610 O.2   222  ASN222     -0.2864
     71  CB        29.1510   32.9050   15.3410 C.3   222  ASN222      0.1181
     72  CG        30.2150   33.8420   14.8530 C.2   222  ASN222      0.2629
     73  OD1       30.0000   35.0570   14.7860 O.2   222  ASN222     -0.2716
     74  ND2       31.3750   33.2940   14.4960 N.am  222  ASN222     -0.0877
     75  N         32.0570   35.0030   21.7300 N.3   247  SER247     -0.1202
     76  CA        32.8190   35.7830   20.7900 C.3   247  SER247      0.2020
     77  C         32.1530   35.6110   19.4690 C.2   247  SER247      0.2619
     78  O         31.6190   34.5490   19.2010 O.2   247  SER247     -0.2717
     79  CB        34.2630   35.3040   20.7010 C.3   247  SER247      0.2103
     80  OG        35.0040   36.1810   19.8640 O.3   247  SER247     -0.2182
     81  N         32.1170   36.6600   18.6620 N.am  248  GLY248     -0.1956
     82  CA        31.5090   36.5210   17.3620 C.3   248  GLY248      0.1869
     83  C         30.4720   37.5640   17.0380 C.2   248  GLY248      0.2309
     84  O         30.8280   38.6830   16.6580 O.2   248  GLY248     -0.2863
     85  N         28.8590   39.8740   18.4410 N.3   250  LEU250     -0.1245
     86  CA        28.6990   40.8460   19.5150 C.3   250  LEU250      0.1561
     87  C         28.6260   42.3330   19.1820 C.2   250  LEU250      0.2260
     88  O         29.5780   42.9100   18.6360 O.2   250  LEU250     -0.2867
     89  CB        29.7650   40.5910   20.5950 C.3   250  LEU250      0.0270
     90  CG        29.4480   39.6280   21.7400 C.3   250  LEU250      0.0019
     91  CD1       28.8320   38.3910   21.2700 C.3   250  LEU250      0.0001
     92  CD2       30.7130   39.3120   22.4380 C.3   250  LEU250      0.0001
     93  N         34.2850   38.3100   24.6000 N.3   267  ALA267     -0.1231
     94  CA        35.5200   38.7040   23.9240 C.3   267  ALA267      0.1694
     95  C         35.1580   39.6270   22.7660 C.2   267  ALA267      0.2592
     96  O         34.5740   39.1830   21.7660 O.2   267  ALA267     -0.2718
     97  CB        36.2620   37.4910   23.4190 C.3   267  ALA267      0.0304
     98  N         35.5400   40.8970   22.8730 N.am  268  VAL268     -0.1966
     99  CA        35.1770   41.8740   21.8760 C.3   268  VAL268      0.1727
    100  C         36.2970   42.3940   20.9950 C.2   268  VAL268      0.2617
    101  O         37.0640   43.2760   21.3840 O.2   268  VAL268     -0.2715
    102  CB        34.4920   43.0860   22.5560 C.3   268  VAL268      0.0290
    103  CG1       33.8020   43.9600   21.4970 C.3   268  VAL268      0.0023
    104  CG2       33.5100   42.6250   23.6410 C.3   268  VAL268      0.0023
    105  N         36.2910   41.9640   19.7520 N.am  269  GLY269     -0.1940
    106  CA        37.3060   42.4210   18.8430 C.3   269  GLY269      0.2014
    107  C         37.2020   43.8810   18.5250 C.2   269  GLY269      0.2638
    108  O         38.2300   44.5230   18.3760 O.2   269  GLY269     -0.2714
    109  N         35.9750   44.4050   18.4430 N.am  270  ALA270     -0.1977
    110  CA        35.6980   45.8020   18.0970 C.3   270  ALA270      0.1597
    111  C         36.4200   46.7820   18.9740 C.2   270  ALA270      0.2287
    112  O         36.7480   47.8850   18.5450 O.2   270  ALA270     -0.2864
    113  CB        34.2430   46.0760   18.1330 C.3   270  ALA270      0.0319
    114  N         39.8930   46.8010   16.9500 N.3   273  HIS273     -0.1241
    115  CA        39.9280   46.9330   15.4850 C.3   273  HIS273      0.1621
    116  C         38.9660   47.9550   14.8230 C.2   273  HIS273      0.2264
    117  O         39.0690   48.2520   13.6360 O.2   273  HIS273     -0.2867
    118  CB        39.8200   45.5650   14.7990 C.3   273  HIS273      0.0745
    119  CG        38.4880   44.8940   14.9470 C.ar  273  HIS273      0.0817
    120  ND1       37.3070   45.4620   14.5110 N.ar  273  HIS273     -0.2268
    121  CD2       38.1580   43.6710   15.4310 C.ar  273  HIS273      0.1154
    122  CE1       36.3120   44.6180   14.7180 C.ar  273  HIS273      0.1986
    123  NE2       36.8020   43.5230   15.2740 N.ar  273  HIS273     -0.2212
@<TRIPOS>BOND
     1    41    39   ar
     2    37    36    2
     3    39    40   ar
     4    39    38    1
     5    36    35    1
     6    38    35    1
     7    35    34    1
     8   117   116    2
     9    16    15    1
    10    74    72   am
    11   120   122   ar
    12   120   119   ar
    13    34    27   am
    14   122   123   ar
    15    73    72    2
    16   118   119    1
    17   118   115    1
    18   116   115    1
    19    72    71    1
    20   119   121   ar
    21    66    64   ar
    22    28    27    2
    23   123   121   ar
    24    15    14    1
    25    71    68    1
    26    27    26    1
    27   115   114    1
    28    14    13    1
    29    29    26    1
    30    29    30    1
    31    50    48   ar
    32    13    12    1
    33    64    65   ar
    34    64    63    1
    35    70    69    2
    36    31    30    1
    37    31    32    1
    38    12     9    1
    39    26    25    1
    40     9    10    1
    41     9     8    1
    42    84    83    2
    43    68    69    1
    44    68    67    1
    45    33    32    1
    46    62    61    2
    47    10    11    2
    48    83    82    1
    49    48    49   ar
    50    48    47    1
    51    82    81    1
    52    63    60    1
    53    67    61   am
    54    61    60    1
    55   110   113    1
    56   110   109    1
    57   110   111    1
    58    47    46    1
    59   108   107    2
    60    60    59    1
    61    85    86    1
    62   109   107   am
    63   107   106    1
    64   112   111    2
    65    88    87    2
    66    81    77   am
    67    45    44    2
    68   106   105    1
    69    46    43    1
    70    87    86    1
    71    78    77    2
    72     6     5    1
    73    77    76    1
    74    20    19    2
    75    86    89    1
    76    44    43    1
    77   105   100   am
    78    80    79    1
    79    43    42    1
    80     5     7    1
    81     5     2    1
    82    58    56    1
    83    19    18    1
    84    89    90    1
    85    79    76    1
    86     3     4    2
    87     3     2    1
    88    76    75    1
    89   100   101    2
    90   100    99    1
    91    24    22    1
    92    91    90    1
    93    54    53    2
    94     2     1    1
    95   103   102    1
    96    23    22    1
    97    21    18    1
    98    21    22    1
    99    57    56    1
   100    90    92    1
   101    56    55    1
   102    96    95    2
   103    18    17    1
   104    99   102    1
   105    99    98    1
   106    53    52    1
   107    55    52    1
   108   102   104    1
   109    95    98   am
   110    95    94    1
   111    52    51    1
   112    97    94    1
   113    94    93    1
