@<TRIPOS>MOLECULE
tmp/1qprE00.pdb
 84 78 0 0 0
SMALL
GASTEIGER

@<TRIPOS>ATOM
      1  N         41.0030   40.7170   22.2720 N.3   137  THR137     -0.1203
      2  CA        41.4470   39.6850   21.3840 C.3   137  THR137      0.1994
      3  C         42.8210   40.0590   20.7870 C.2   137  THR137      0.2618
      4  O         43.4630   41.0380   21.1750 O.2   137  THR137     -0.2717
      5  CB        40.4560   39.5550   20.2210 C.3   137  THR137      0.1784
      6  OG1       40.4890   40.7590   19.4570 O.3   137  THR137     -0.2211
      7  CG2       39.0520   39.3590   20.7050 C.3   137  THR137      0.0376
      8  N         43.2530   39.2910   19.7960 N.am  138  ARG138     -0.1965
      9  CA        44.5320   39.5370   19.1460 C.3   138  ARG138      0.1729
     10  C         44.3100   40.3790   17.9130 C.2   138  ARG138      0.2616
     11  O         45.1850   40.5380   17.0960 O.2   138  ARG138     -0.2715
     12  CB        45.2060   38.2110   18.7990 C.3   138  ARG138      0.0348
     13  CG        45.9650   37.5540   20.0010 C.3   138  ARG138      0.0492
     14  CD        47.0110   36.5700   19.4700 C.3   138  ARG138      0.2205
     15  NE        46.3090   35.6360   18.6250 N.pl3 138  ARG138     -0.0865
     16  CZ        46.6490   35.2980   17.4000 C.cat 138  ARG138      0.5346
     17  NH1       47.7150   35.7850   16.8480 N.pl3 138  ARG138      0.1354
     18  NH2       45.8410   34.5440   16.6830 N.pl3 138  ARG138      0.1354
     19  N         43.1080   40.9180   17.7760 N.am  139  LYS139     -0.1977
     20  CA        42.7660   41.7560   16.6390 C.3   139  LYS139      0.1596
     21  C         43.1900   43.1790   16.9830 C.2   139  LYS139      0.2287
     22  O         42.3680   44.0690   17.1380 O.2   139  LYS139     -0.2864
     23  CB        41.2620   41.6840   16.3700 C.3   139  LYS139      0.0298
     24  CG        40.7590   40.2930   16.1130 C.3   139  LYS139      0.0038
     25  CD        39.3340   40.3340   15.6640 C.3   139  LYS139      0.0206
     26  CE        38.8260   38.9440   15.3250 C.3   139  LYS139      0.1093
     27  NZ        38.0050   38.8940   14.0560 N.3   139  LYS139     -0.1314
     28  N         43.0350   39.4340   27.2750 N.3   160  HIS160     -0.1226
     29  CA        42.9980   38.0100   26.9680 C.3   160  HIS160      0.1752
     30  C         44.5140   37.7030   26.7810 C.2   160  HIS160      0.2595
     31  O         45.3700   38.4020   27.3300 O.2   160  HIS160     -0.2718
     32  CB        42.2130   37.7790   25.6710 C.3   160  HIS160      0.0759
     33  CG        41.7510   36.3660   25.4700 C.ar  160  HIS160      0.0818
     34  ND1       40.4460   36.0520   25.1550 N.ar  160  HIS160     -0.2268
     35  CD2       42.4130   35.1850   25.5450 C.ar  160  HIS160      0.1154
     36  CE1       40.3230   34.7420   25.0490 C.ar  160  HIS160      0.1986
     37  NE2       41.5000   34.1940   25.2810 N.ar  160  HIS160     -0.2212
     38  N         44.8710   36.7240   25.9680 N.am  161  ARG161     -0.1980
     39  CA        46.2820   36.4220   25.7920 C.3   161  ARG161      0.1597
     40  C         46.9000   37.5340   24.9580 C.2   161  ARG161      0.2287
     41  O         46.1910   38.1940   24.1960 O.2   161  ARG161     -0.2864
     42  CB        46.4840   35.0250   25.1610 C.3   161  ARG161      0.0334
     43  CG        45.9200   34.8750   23.7940 C.3   161  ARG161      0.0492
     44  CD        46.0850   33.4630   23.2890 C.3   161  ARG161      0.2205
     45  NE        45.6550   33.3730   21.8920 N.pl3 161  ARG161     -0.0865
     46  CZ        46.0710   32.4500   21.0300 C.cat 161  ARG161      0.5346
     47  NH1       46.9470   31.5290   21.4180 N.pl3 161  ARG161      0.1354
     48  NH2       45.6040   32.4300   19.7880 N.pl3 161  ARG161      0.1354
     49  N         44.9110   28.3400   22.1640 N.3   169  LEU169     -0.1245
     50  CA        43.5540   28.6540   21.7980 C.3   169  LEU169      0.1561
     51  C         43.3220   27.8880   20.5500 C.2   169  LEU169      0.2260
     52  O         43.8460   28.2850   19.5050 O.2   169  LEU169     -0.2867
     53  CB        43.3790   30.1510   21.5230 C.3   169  LEU169      0.0270
     54  CG        41.9870   30.7590   21.8320 C.3   169  LEU169      0.0019
     55  CD1       41.9900   32.2010   21.4980 C.3   169  LEU169      0.0001
     56  CD2       40.8690   30.0990   21.0630 C.3   169  LEU169      0.0001
     57  N         41.4970   26.9090   17.3980 N.3   171  LYS171     -0.1245
     58  CA        40.6050   27.5590   16.4620 C.3   171  LYS171      0.1561
     59  C         40.0790   26.6440   15.3860 C.2   171  LYS171      0.2260
     60  O         40.5540   25.5320   15.2140 O.2   171  LYS171     -0.2867
     61  CB        41.3600   28.7350   15.8410 C.3   171  LYS171      0.0271
     62  CG        41.7270   29.7850   16.8830 C.3   171  LYS171      0.0035
     63  CD        42.6000   30.8920   16.3640 C.3   171  LYS171      0.0206
     64  CE        42.4460   32.1650   17.1970 C.3   171  LYS171      0.1093
     65  NZ        41.1650   32.8940   16.9050 N.3   171  LYS171     -0.1314
     66  N         35.3460   28.8640   23.9360 N.3   219  LEU219     -0.1245
     67  CA        34.9400   30.0720   23.2310 C.3   219  LEU219      0.1561
     68  C         33.7950   29.6900   22.2980 C.2   219  LEU219      0.2260
     69  O         33.9650   28.9030   21.3830 O.2   219  LEU219     -0.2867
     70  CB        36.1230   30.6950   22.4750 C.3   219  LEU219      0.0270
     71  CG        35.9290   32.0500   21.7600 C.3   219  LEU219      0.0019
     72  CD1       37.2240   32.8230   21.7260 C.3   219  LEU219      0.0001
     73  CD2       35.4170   31.8590   20.3370 C.3   219  LEU219      0.0001
     74  N         32.0570   35.0030   21.7300 N.3   247  SER247     -0.1217
     75  CA        32.8190   35.7830   20.7900 C.3   247  SER247      0.1889
     76  C         32.1530   35.6110   19.4690 C.2   247  SER247      0.2288
     77  O         31.6190   34.5490   19.2010 O.2   247  SER247     -0.2866
     78  CB        34.2630   35.3040   20.7010 C.3   247  SER247      0.2089
     79  OG        35.0040   36.1810   19.8640 O.3   247  SER247     -0.2183
     80  N         34.2850   38.3100   24.6000 N.3   267  ALA267     -0.1245
     81  CA        35.5200   38.7040   23.9240 C.3   267  ALA267      0.1562
     82  C         35.1580   39.6270   22.7660 C.2   267  ALA267      0.2260
     83  O         34.5740   39.1830   21.7660 O.2   267  ALA267     -0.2867
     84  CB        36.2620   37.4910   23.4190 C.3   267  ALA267      0.0290
@<TRIPOS>BOND
     1    27    26    1
     2    60    59    2
     3    26    25    1
     4    59    58    1
     5    25    24    1
     6    61    58    1
     7    61    62    1
     8    24    23    1
     9    63    62    1
    10    63    64    1
    11    23    20    1
    12    58    57    1
    13    20    21    1
    14    20    19    1
    15    18    16    1
    16    17    16    1
    17    65    64    1
    18    21    22    2
    19    11    10    2
    20    16    15    2
    21    19    10   am
    22    10     9    1
    23    15    14    1
    24    12     9    1
    25    12    13    1
    26     9     8    1
    27    77    76    2
    28     6     5    1
    29    76    75    1
    30    14    13    1
    31    52    51    2
    32    48    46    1
    33     8     3   am
    34    79    78    1
    35     5     7    1
    36     5     2    1
    37    73    71    1
    38    51    50    1
    39    78    75    1
    40     3     4    2
    41     3     2    1
    42    75    74    1
    43    46    47    1
    44    46    45    2
    45    56    54    1
    46    69    68    2
    47     2     1    1
    48    55    54    1
    49    53    50    1
    50    53    54    1
    51    72    71    1
    52    71    70    1
    53    83    82    2
    54    50    49    1
    55    45    44    1
    56    68    67    1
    57    70    67    1
    58    82    81    1
    59    67    66    1
    60    44    43    1
    61    84    81    1
    62    43    42    1
    63    81    80    1
    64    41    40    2
    65    40    39    1
    66    36    34   ar
    67    36    37   ar
    68    34    33   ar
    69    42    39    1
    70    37    35   ar
    71    33    35   ar
    72    33    32    1
    73    32    29    1
    74    39    38    1
    75    38    30   am
    76    30    29    1
    77    30    31    2
    78    29    28    1
