@<TRIPOS>MOLECULE
tmp/1qqsA01.pdb
 147 139 0 0 0
SMALL
GASTEIGER

@<TRIPOS>ATOM
      1  N         37.6490   29.5820   36.1360 N.3    49  TYR49      -0.1241
      2  CA        38.7170   29.8120   37.1160 C.3    49  TYR49       0.1605
      3  C         38.6020   31.2320   37.6320 C.2    49  TYR49       0.2264
      4  O         38.0060   32.1010   36.9870 O.2    49  TYR49      -0.2867
      5  CB        40.0910   29.5440   36.4870 C.3    49  TYR49       0.0534
      6  CG        40.5740   30.6120   35.4940 C.ar   49  TYR49      -0.0201
      7  CD1       40.3000   30.4740   34.1280 C.ar   49  TYR49      -0.0009
      8  CD2       41.3060   31.7170   35.9480 C.ar   49  TYR49      -0.0009
      9  CE1       40.7790   31.4240   33.2160 C.ar   49  TYR49       0.0417
     10  CE2       41.7920   32.6620   35.0360 C.ar   49  TYR49       0.0417
     11  CZ        41.5320   32.5130   33.6690 C.ar   49  TYR49       0.1957
     12  OH        42.0180   33.4210   32.7810 O.3    49  TYR49      -0.2866
     13  N         40.3690   34.7900   39.5760 N.3    51  THR51      -0.1218
     14  CA        41.5660   35.6160   39.6090 C.3    51  THR51       0.1862
     15  C         41.3140   36.6930   40.6500 C.2    51  THR51       0.2287
     16  O         40.2700   37.3600   40.6320 O.2    51  THR51      -0.2866
     17  CB        41.8720   36.2470   38.2290 C.3    51  THR51       0.1770
     18  OG1       40.6830   36.8340   37.6950 O.3    51  THR51      -0.2211
     19  CG2       42.3800   35.1890   37.2620 C.3    51  THR51       0.0375
     20  N         42.4590   40.1790   42.6680 N.3    53  TYR53      -0.1241
     21  CA        43.1800   41.4280   42.5390 C.3    53  TYR53       0.1605
     22  C         43.4080   42.0280   43.9230 C.2    53  TYR53       0.2264
     23  O         42.5180   42.6700   44.4850 O.2    53  TYR53      -0.2867
     24  CB        42.3820   42.3900   41.6390 C.3    53  TYR53       0.0534
     25  CG        42.4820   42.0540   40.1550 C.ar   53  TYR53      -0.0201
     26  CD1       43.2010   42.8770   39.2830 C.ar   53  TYR53      -0.0009
     27  CD2       41.9290   40.8760   39.6380 C.ar   53  TYR53      -0.0009
     28  CE1       43.3780   42.5350   37.9360 C.ar   53  TYR53       0.0417
     29  CE2       42.1020   40.5250   38.2890 C.ar   53  TYR53       0.0417
     30  CZ        42.8290   41.3630   37.4430 C.ar   53  TYR53       0.1957
     31  OH        42.9980   41.0430   36.1100 O.3    53  TYR53      -0.2866
     32  N         45.7210   33.8120   40.5040 N.3    65  SER65      -0.1217
     33  CA        44.7010   33.0530   39.7930 C.3    65  SER65       0.1889
     34  C         44.6580   31.6310   40.3320 C.2    65  SER65       0.2288
     35  O         45.6910   31.0310   40.6120 O.2    65  SER65      -0.2866
     36  CB        44.9850   33.0120   38.2910 C.3    65  SER65       0.2089
     37  OG        44.8790   34.3030   37.7370 O.3    65  SER65      -0.2183
     38  N         51.2740   37.0540   40.1910 N.3    78  ARG78      -0.1245
     39  CA        52.0340   38.0240   39.4280 C.3    78  ARG78       0.1563
     40  C         51.5290   39.3860   39.8570 C.2    78  ARG78       0.2260
     41  O         50.3960   39.5080   40.3210 O.2    78  ARG78      -0.2867
     42  CB        51.7820   37.7910   37.9400 C.3    78  ARG78       0.0307
     43  CG        50.3030   37.6390   37.6280 C.3    78  ARG78       0.0489
     44  CD        50.0470   37.0800   36.2370 C.3    78  ARG78       0.2205
     45  NE        48.6160   37.0270   35.9390 N.pl3  78  ARG78      -0.0865
     46  CZ        47.7160   36.4120   36.7020 C.cat  78  ARG78       0.5346
     47  NH1       48.0900   35.7930   37.8110 N.pl3  78  ARG78       0.1354
     48  NH2       46.4370   36.4170   36.3620 N.pl3  78  ARG78       0.1354
     49  N         50.7370   43.4660   38.9520 N.3    80  PHE80      -0.1241
     50  CA        50.4160   44.3860   37.8700 C.3    80  PHE80       0.1605
     51  C         50.7710   45.7920   38.3450 C.2    80  PHE80       0.2264
     52  O         50.1660   46.3080   39.2910 O.2    80  PHE80      -0.2867
     53  CB        48.9160   44.3110   37.5300 C.3    80  PHE80       0.0534
     54  CG        48.5110   43.0570   36.7990 C.ar   80  PHE80      -0.0203
     55  CD1       47.1720   42.7280   36.6590 C.ar   80  PHE80      -0.0042
     56  CD2       49.4710   42.2170   36.2290 C.ar   80  PHE80      -0.0042
     57  CE1       46.7940   41.5770   35.9600 C.ar   80  PHE80      -0.0003
     58  CE2       49.1000   41.0780   35.5360 C.ar   80  PHE80      -0.0003
     59  CZ        47.7650   40.7570   35.4000 C.ar   80  PHE80      -0.0000
     60  N         53.4420   44.1960   33.5170 N.3    91  LEU91      -0.1245
     61  CA        53.8760   43.0850   34.3590 C.3    91  LEU91       0.1561
     62  C         55.1330   43.4290   35.1430 C.2    91  LEU91       0.2260
     63  O         56.1770   43.7110   34.5550 O.2    91  LEU91      -0.2867
     64  CB        54.1480   41.8660   33.4900 C.3    91  LEU91       0.0270
     65  CG        54.4480   40.5830   34.2500 C.3    91  LEU91       0.0019
     66  CD1       53.2930   40.2800   35.2020 C.3    91  LEU91       0.0001
     67  CD2       54.6580   39.4450   33.2610 C.3    91  LEU91       0.0001
     68  N         61.2120   36.9110   33.4100 N.3    97  TYR97      -0.1241
     69  CA        60.6840   36.2280   32.2200 C.3    97  TYR97       0.1605
     70  C         61.5440   36.6700   31.0330 C.2    97  TYR97       0.2264
     71  O         61.1000   37.4580   30.2000 O.2    97  TYR97      -0.2867
     72  CB        59.2300   36.6370   31.9500 C.3    97  TYR97       0.0534
     73  CG        58.3620   36.7340   33.2060 C.ar   97  TYR97      -0.0201
     74  CD1       57.4710   35.7000   33.5210 C.ar   97  TYR97      -0.0009
     75  CD2       58.4520   37.8590   34.0310 C.ar   97  TYR97      -0.0009
     76  CE1       56.6690   35.7940   34.6640 C.ar   97  TYR97       0.0417
     77  CE2       57.6500   37.9530   35.1740 C.ar   97  TYR97       0.0417
     78  CZ        56.7580   36.9210   35.4900 C.ar   97  TYR97       0.1957
     79  OH        55.9780   37.0140   36.6000 O.3    97  TYR97      -0.2866
     80  N         59.8510   37.3790   27.6050 N.3   100  LEU100     -0.1245
     81  CA        58.8630   38.4440   27.3850 C.3   100  LEU100      0.1561
     82  C         59.4800   39.7860   27.0200 C.2   100  LEU100      0.2260
     83  O         60.4560   40.2200   27.6320 O.2   100  LEU100     -0.2867
     84  CB        57.9900   38.6500   28.6300 C.3   100  LEU100      0.0270
     85  CG        56.7640   37.7710   28.8800 C.3   100  LEU100      0.0019
     86  CD1       56.1850   38.1120   30.2390 C.3   100  LEU100      0.0001
     87  CD2       55.7180   37.9980   27.8060 C.3   100  LEU100      0.0001
     88  N         54.1420   43.4650   27.9860 N.3   103  TYR103     -0.1241
     89  CA        52.9110   42.9300   28.5330 C.3   103  TYR103      0.1605
     90  C         52.0920   44.0820   29.0810 C.2   103  TYR103      0.2264
     91  O         52.5100   44.7620   30.0150 O.2   103  TYR103     -0.2867
     92  CB        53.2290   41.9220   29.6380 C.3   103  TYR103      0.0534
     93  CG        52.0330   41.1770   30.1760 C.ar  103  TYR103     -0.0201
     94  CD1       51.0410   41.8350   30.9040 C.ar  103  TYR103     -0.0009
     95  CD2       51.8930   39.8070   29.9600 C.ar  103  TYR103     -0.0009
     96  CE1       49.9370   41.1420   31.4050 C.ar  103  TYR103      0.0417
     97  CE2       50.8000   39.1090   30.4520 C.ar  103  TYR103      0.0417
     98  CZ        49.8270   39.7820   31.1750 C.ar  103  TYR103      0.1957
     99  OH        48.7540   39.0870   31.6770 O.3   103  TYR103     -0.2866
    100  N         44.2080   41.9720   27.5580 N.3   120  PHE120     -0.1241
    101  CA        45.6090   41.5930   27.8030 C.3   120  PHE120      0.1605
    102  C         46.3710   41.3960   26.4950 C.2   120  PHE120      0.2264
    103  O         45.8710   40.7650   25.5660 O.2   120  PHE120     -0.2867
    104  CB        45.7070   40.2650   28.5520 C.3   120  PHE120      0.0534
    105  CG        45.0030   40.2480   29.8620 C.ar  120  PHE120     -0.0203
    106  CD1       45.7120   40.4210   31.0470 C.ar  120  PHE120     -0.0042
    107  CD2       43.6230   40.0560   29.9180 C.ar  120  PHE120     -0.0042
    108  CE1       45.0550   40.4050   32.2700 C.ar  120  PHE120     -0.0003
    109  CE2       42.9560   40.0390   31.1350 C.ar  120  PHE120     -0.0003
    110  CZ        43.6720   40.2140   32.3150 C.ar  120  PHE120     -0.0000
    111  N         50.5990   40.7500   25.0020 N.3   122  LYS122     -0.1245
    112  CA        51.9950   40.5290   25.3410 C.3   122  LYS122      0.1561
    113  C         52.7560   39.8740   24.2050 C.2   122  LYS122      0.2260
    114  O         52.3800   38.8030   23.7430 O.2   122  LYS122     -0.2867
    115  CB        52.1050   39.6310   26.5670 C.3   122  LYS122      0.0271
    116  CG        51.5330   38.2370   26.3560 C.3   122  LYS122      0.0035
    117  CD        52.3150   37.2130   27.1530 C.3   122  LYS122      0.0206
    118  CE        51.5570   35.9000   27.3050 C.3   122  LYS122      0.1093
    119  NZ        52.2930   34.9170   28.1750 N.3   122  LYS122     -0.1314
    120  N         44.1880   38.7980   24.6080 N.3   131  LYS131     -0.1245
    121  CA        42.9610   38.1600   25.0500 C.3   131  LYS131      0.1561
    122  C         42.0970   39.0920   25.8700 C.2   131  LYS131      0.2260
    123  O         42.5480   40.1300   26.3460 O.2   131  LYS131     -0.2867
    124  CB        43.2700   36.8900   25.8510 C.3   131  LYS131      0.0271
    125  CG        43.5490   37.1060   27.3210 C.3   131  LYS131      0.0035
    126  CD        43.8170   35.7820   28.0350 C.3   131  LYS131      0.0206
    127  CE        44.0250   35.9930   29.5300 C.3   131  LYS131      0.1093
    128  NZ        44.4210   34.7480   30.2470 N.3   131  LYS131     -0.1314
    129  N         39.0810   38.9710   29.0090 N.3   133  THR133     -0.1218
    130  CA        38.4470   38.1330   30.0110 C.3   133  THR133      0.1862
    131  C         37.1570   38.8290   30.4200 C.2   133  THR133      0.2287
    132  O         37.1170   40.0500   30.5560 O.2   133  THR133     -0.2866
    133  CB        39.3290   37.9590   31.2560 C.3   133  THR133      0.1770
    134  OG1       39.4480   39.2140   31.9320 O.3   133  THR133     -0.2211
    135  CG2       40.7170   37.4570   30.8690 C.3   133  THR133      0.0375
    136  N         34.8670   39.2340   33.3450 N.3   135  TYR135     -0.1241
    137  CA        34.8480   38.9650   34.7760 C.3   135  TYR135      0.1605
    138  C         33.4650   39.1210   35.3820 C.2   135  TYR135      0.2264
    139  O         32.7040   40.0130   35.0040 O.2   135  TYR135     -0.2867
    140  CB        35.7940   39.9020   35.5230 C.3   135  TYR135      0.0534
    141  CG        37.2700   39.6200   35.3720 C.ar  135  TYR135     -0.0201
    142  CD1       37.7380   38.3760   34.9400 C.ar  135  TYR135     -0.0009
    143  CD2       38.2070   40.5880   35.7170 C.ar  135  TYR135     -0.0009
    144  CE1       39.1140   38.1110   34.8600 C.ar  135  TYR135      0.0417
    145  CE2       39.5650   40.3360   35.6450 C.ar  135  TYR135      0.0417
    146  CZ        40.0140   39.1010   35.2190 C.ar  135  TYR135      0.1957
    147  OH        41.3640   38.8750   35.1850 O.3   135  TYR135     -0.2866
@<TRIPOS>BOND
     1   114   113    2
     2   113   112    1
     3   120   121    1
     4   111   112    1
     5   121   124    1
     6   121   122    1
     7   112   115    1
     8   103   102    2
     9   124   125    1
    10   122   123    2
    11   116   115    1
    12   116   117    1
    13   102   101    1
    14    82    81    1
    15    82    83    2
    16   117   118    1
    17   118   119    1
    18   125   126    1
    19    81    80    1
    20    81    84    1
    21   100   101    1
    22   101   104    1
    23    87    85    1
    24    88    89    1
    25   126   127    1
    26    89    90    1
    27    89    92    1
    28   104   105    1
    29    84    85    1
    30    85    86    1
    31   129   130    1
    32    90    91    2
    33   127   128    1
    34    92    93    1
    35   105   107   ar
    36   105   106   ar
    37   107   109   ar
    38    95    93   ar
    39    95    97   ar
    40   130   131    1
    41   130   133    1
    42    93    94   ar
    43    71    70    2
    44   131   132    2
    45    97    98   ar
    46   135   133    1
    47    94    96   ar
    48    70    69    1
    49   106   108   ar
    50   109   110   ar
    51    98    96   ar
    52    98    99    1
    53   133   134    1
    54    72    69    1
    55    72    73    1
    56    69    68    1
    57   108   110   ar
    58    12    11    1
    59    73    74   ar
    60    73    75   ar
    61     9    11   ar
    62     9     7   ar
    63    67    65    1
    64   136   137    1
    65    64    65    1
    66    64    61    1
    67    60    61    1
    68    74    76   ar
    69    11    10   ar
    70    75    77   ar
    71     7     6   ar
    72    65    66    1
    73    61    62    1
    74    63    62    2
    75    76    78   ar
    76   137   138    1
    77   137   140    1
    78   144   142   ar
    79   144   146   ar
    80   142   141   ar
    81   139   138    2
    82    10     8   ar
    83    77    78   ar
    84   147   146    1
    85   146   145   ar
    86   141   140    1
    87   141   143   ar
    88    59    58   ar
    89    59    57   ar
    90    78    79    1
    91     6     8   ar
    92     6     5    1
    93    58    56   ar
    94   145   143   ar
    95    45    44    1
    96    45    46    2
    97    57    55   ar
    98    31    30    1
    99     1     2    1
   100    56    54   ar
   101    44    43    1
   102    48    46    1
   103     5     2    1
   104    55    54   ar
   105    46    47    1
   106    54    53    1
   107     4     3    2
   108     2     3    1
   109    19    17    1
   110    30    28   ar
   111    30    29   ar
   112    53    50    1
   113    43    42    1
   114    18    17    1
   115    37    36    1
   116    50    51    1
   117    50    49    1
   118    28    26   ar
   119    42    39    1
   120    17    14    1
   121    29    27   ar
   122    36    33    1
   123    51    52    2
   124    26    25   ar
   125    39    40    1
   126    39    38    1
   127    13    14    1
   128    14    15    1
   129    27    25   ar
   130    33    34    1
   131    33    32    1
   132    40    41    2
   133    25    24    1
   134    34    35    2
   135    16    15    2
   136    24    21    1
   137    21    20    1
   138    21    22    1
   139    22    23    2
