@<TRIPOS>MOLECULE
tmp/1qr0A00.pdb
 215 208 0 0 0
SMALL
GASTEIGER

@<TRIPOS>ATOM
      1  N         18.3950  -16.1190   73.2580 N.3    28  LYS28      -0.1245
      2  CA        19.3450  -15.5090   72.3530 C.3    28  LYS28       0.1561
      3  C         19.5690  -16.3850   71.1510 C.2    28  LYS28       0.2260
      4  O         19.7120  -15.8800   70.0510 O.2    28  LYS28      -0.2867
      5  CB        20.6760  -15.2460   73.0490 C.3    28  LYS28       0.0271
      6  CG        21.4610  -14.1080   72.4080 C.3    28  LYS28       0.0035
      7  CD        20.5360  -12.9680   71.9470 C.3    28  LYS28       0.0206
      8  CE        21.3220  -11.7000   71.6150 C.3    28  LYS28       0.1093
      9  NZ        22.0830  -11.1840   72.7980 N.3    28  LYS28      -0.1314
     10  N         16.6870  -15.7930   68.8390 N.3    31  LYS31      -0.1245
     11  CA        16.8390  -14.5370   68.1260 C.3    31  LYS31       0.1561
     12  C         17.8960  -14.6740   67.0270 C.2    31  LYS31       0.2260
     13  O         17.7100  -14.1690   65.9250 O.2    31  LYS31      -0.2867
     14  CB        17.2290  -13.4070   69.0760 C.3    31  LYS31       0.0271
     15  CG        17.1810  -12.0300   68.4140 C.3    31  LYS31       0.0035
     16  CD        17.6830  -10.9450   69.3500 C.3    31  LYS31       0.0206
     17  CE        18.5450   -9.9200   68.6310 C.3    31  LYS31       0.1093
     18  NZ        18.5580   -8.6500   69.4080 N.3    31  LYS31      -0.1314
     19  N         17.3550  -14.4990   62.3920 N.3    35  PHE35      -0.1241
     20  CA        17.8590  -13.5560   61.3950 C.3    35  PHE35       0.1605
     21  C         17.8540  -14.1350   59.9710 C.2    35  PHE35       0.2264
     22  O         18.2610  -15.2800   59.7460 O.2    35  PHE35      -0.2867
     23  CB        19.2810  -13.1170   61.7520 C.3    35  PHE35       0.0534
     24  CG        19.3450  -12.0840   62.8500 C.ar   35  PHE35      -0.0203
     25  CD1       19.9060  -12.4010   64.0970 C.ar   35  PHE35      -0.0042
     26  CD2       18.8880  -10.7840   62.6340 C.ar   35  PHE35      -0.0042
     27  CE1       20.0160  -11.4310   65.1050 C.ar   35  PHE35      -0.0003
     28  CE2       18.9920   -9.8100   63.6410 C.ar   35  PHE35      -0.0003
     29  CZ        19.5570  -10.1350   64.8730 C.ar   35  PHE35      -0.0000
     30  N         25.4690  -10.6730   66.2890 N.3    44  THR44      -0.1218
     31  CA        24.7520  -10.6810   67.5540 C.3    44  THR44       0.1862
     32  C         25.3660  -11.7390   68.4500 C.2    44  THR44       0.2287
     33  O         25.5900  -11.5110   69.6410 O.2    44  THR44      -0.2866
     34  CB        23.2430  -10.9640   67.3470 C.3    44  THR44       0.1770
     35  OG1       22.6040   -9.7820   66.8590 O.3    44  THR44      -0.2211
     36  CG2       22.5690  -11.3430   68.6450 C.3    44  THR44       0.0375
     37  N         28.8570  -10.5830   69.6990 N.3    47  GLY47      -0.1225
     38  CA        28.7350   -9.4880   70.6380 C.3    47  GLY47       0.1811
     39  C         28.3650  -10.0470   72.0100 C.2    47  GLY47       0.2280
     40  O         28.8940   -9.6160   73.0280 O.2    47  GLY47      -0.2866
     41  N         17.3890   -6.7650   80.4010 N.3    70  THR70      -0.1218
     42  CA        17.1910   -5.5380   79.6640 C.3    70  THR70       0.1862
     43  C         16.6020   -4.4740   80.5580 C.2    70  THR70       0.2287
     44  O         15.6360   -4.7170   81.2750 O.2    70  THR70      -0.2866
     45  CB        16.2460   -5.7830   78.5100 C.3    70  THR70       0.1770
     46  OG1       17.0070   -6.2500   77.3980 O.3    70  THR70      -0.2211
     47  CG2       15.5010   -4.5180   78.1290 C.3    70  THR70       0.0375
     48  N         14.9190   -0.5010   81.1590 N.3    72  GLU72      -0.1231
     49  CA        13.6940    0.1220   80.6270 C.3    72  GLU72       0.1699
     50  C         13.6110    0.3310   79.1130 C.2    72  GLU72       0.2592
     51  O         12.5710    0.0590   78.5110 O.2    72  GLU72      -0.2718
     52  CB        13.4090    1.4620   81.3280 C.3    72  GLU72       0.0402
     53  CG        12.3400    2.3140   80.6040 C.3    72  GLU72       0.1161
     54  CD        11.6740    3.3670   81.4900 C.2    72  GLU72       0.3649
     55  OE1       10.5700    3.8490   81.1210 O.co2  72  GLU72      -0.2457
     56  OE2       12.2540    3.7130   82.5500 O.co2  72  GLU72      -0.2457
     57  N         14.6740    0.8110   78.4750 N.am   73  TYR73      -0.1962
     58  CA        14.5740    1.0200   77.0350 C.3    73  TYR73       0.1771
     59  C         15.3160    0.0280   76.1720 C.2    73  TYR73       0.2620
     60  O         15.6570    0.3150   75.0260 O.2    73  TYR73      -0.2715
     61  CB        14.9840    2.4390   76.6870 C.3    73  TYR73       0.0574
     62  CG        13.9350    3.4150   77.1350 C.ar   73  TYR73      -0.0198
     63  CD1       14.0410    4.0580   78.3670 C.ar   73  TYR73      -0.0009
     64  CD2       12.8070    3.6550   76.3490 C.ar   73  TYR73      -0.0009
     65  CE1       13.0520    4.9140   78.8120 C.ar   73  TYR73       0.0417
     66  CE2       11.8080    4.5090   76.7790 C.ar   73  TYR73       0.0417
     67  CZ        11.9320    5.1390   78.0170 C.ar   73  TYR73       0.1957
     68  OH        10.9360    5.9920   78.4580 O.3    73  TYR73      -0.2866
     69  N         15.5510   -1.1480   76.7360 N.am   74  GLY74      -0.1940
     70  CA        16.2230   -2.2010   76.0090 C.3    74  GLY74       0.2014
     71  C         17.7220   -2.3280   76.1840 C.2    74  GLY74       0.2639
     72  O         18.3070   -3.2450   75.6090 O.2    74  GLY74      -0.2714
     73  N         18.3600   -1.4400   76.9460 N.am   75  LYS75      -0.1963
     74  CA        19.8010   -1.5800   77.0980 C.3    75  LYS75       0.1713
     75  C         20.1520   -2.8120   77.9270 C.2    75  LYS75       0.2458
     76  O         19.6230   -3.0320   79.0200 O.2    75  LYS75      -0.2730
     77  CB        20.4170   -0.3240   77.7110 C.3    75  LYS75       0.0311
     78  CG        21.9300   -0.3340   77.6260 C.3    75  LYS75       0.0038
     79  CD        22.5500    0.9940   78.0030 C.3    75  LYS75       0.0206
     80  CE        24.0660    0.8780   77.9490 C.3    75  LYS75       0.1093
     81  NZ        24.7020    2.1450   78.3270 N.3    75  LYS75      -0.1314
     82  N         21.0380   -3.6630   77.3970 N.am   76  PRO76      -0.2727
     83  CA        21.4070   -4.8620   78.1570 C.3    76  PRO76       0.1402
     84  C         22.2810   -4.5400   79.3390 C.2    76  PRO76       0.2269
     85  O         23.0150   -3.5600   79.3410 O.2    76  PRO76      -0.2865
     86  CB        22.1450   -5.7400   77.1410 C.3    76  PRO76       0.0296
     87  CG        21.9300   -5.0600   75.7830 C.3    76  PRO76       0.0237
     88  CD        21.7080   -3.6120   76.0870 C.3    76  PRO76       0.0939
     89  N         28.5850   -2.2520   80.2950 N.3    86  PHE86      -0.1227
     90  CA        29.1150   -2.5160   78.9700 C.3    86  PHE86       0.1736
     91  C         28.1700   -2.0210   77.8920 C.2    86  PHE86       0.2595
     92  O         27.0580   -1.5620   78.1670 O.2    86  PHE86      -0.2718
     93  CB        29.3250   -4.0170   78.7850 C.3    86  PHE86       0.0547
     94  CG        28.0540   -4.8190   78.8840 C.ar   86  PHE86      -0.0202
     95  CD1       27.2610   -5.0360   77.7540 C.ar   86  PHE86      -0.0042
     96  CD2       27.6320   -5.3310   80.1250 C.ar   86  PHE86      -0.0042
     97  CE1       26.0690   -5.7440   77.8510 C.ar   86  PHE86      -0.0003
     98  CE2       26.4430   -6.0420   80.2410 C.ar   86  PHE86      -0.0003
     99  CZ        25.6550   -6.2540   79.1030 C.ar   86  PHE86      -0.0000
    100  N         28.6550   -2.0810   76.6570 N.am   87  ASN87      -0.1960
    101  CA        27.8500   -1.7400   75.5040 C.3    87  ASN87       0.1819
    102  C         28.5220   -2.3450   74.2980 C.2    87  ASN87       0.2621
    103  O         29.7490   -2.3650   74.1980 O.2    87  ASN87      -0.2715
    104  CB        27.6710   -0.2440   75.3200 C.3    87  ASN87       0.1195
    105  CG        26.4520    0.0760   74.4690 C.2    87  ASN87       0.2630
    106  OD1       26.5080    0.9020   73.5560 O.2    87  ASN87      -0.2716
    107  ND2       25.3380   -0.5820   74.7670 N.am   87  ASN87      -0.0877
    108  N         27.6900   -2.8550   73.3950 N.am   88  ILE88      -0.1963
    109  CA        28.1380   -3.5110   72.1710 C.3    88  ILE88       0.1727
    110  C         27.6170   -2.7690   70.9340 C.2    88  ILE88       0.2617
    111  O         26.5520   -2.1580   70.9690 O.2    88  ILE88      -0.2715
    112  CB        27.5840   -4.9840   72.1080 C.3    88  ILE88       0.0290
    113  CG1       28.3220   -5.8880   73.1200 C.3    88  ILE88       0.0022
    114  CG2       27.6350   -5.5290   70.6470 C.3    88  ILE88       0.0023
    115  CD1       29.7640   -6.2970   72.7160 C.3    88  ILE88       0.0001
    116  N         28.3990   -2.8090   69.8580 N.am   89  SER89      -0.1936
    117  CA        27.9810   -2.2690   68.5800 C.3    89  SER89       0.2055
    118  C         28.6070   -3.2370   67.5940 C.2    89  SER89       0.2643
    119  O         29.6860   -3.7650   67.8430 O.2    89  SER89      -0.2714
    120  CB        28.5150   -0.8680   68.3230 C.3    89  SER89       0.2130
    121  OG        28.0420   -0.4290   67.0520 O.3    89  SER89      -0.2179
    122  N         27.9200   -3.5120   66.4950 N.am   90  HIS90      -0.1973
    123  CA        28.4740   -4.4120   65.4870 C.3    90  HIS90       0.1656
    124  C         27.9740   -3.9840   64.1440 C.2    90  HIS90       0.2291
    125  O         26.7890   -3.6870   63.9810 O.2    90  HIS90      -0.2864
    126  CB        28.1080   -5.8880   65.7380 C.3    90  HIS90       0.0771
    127  CG        26.7120   -6.1080   66.2390 C.ar   90  HIS90       0.0820
    128  ND1       25.5970   -5.6140   65.5970 N.ar   90  HIS90      -0.2267
    129  CD2       26.2560   -6.8020   67.3100 C.ar   90  HIS90       0.1154
    130  CE1       24.5120   -5.9960   66.2470 C.ar   90  HIS90       0.1986
    131  NE2       24.8840   -6.7200   67.2910 N.ar   90  HIS90      -0.2212
    132  N         29.5530    2.9090   69.3790 N.3   107  ASP107     -0.1225
    133  CA        28.9260    2.6920   68.0860 C.3   107  ASP107      0.1805
    134  C         29.9370    2.5560   66.9390 C.2   107  ASP107      0.2598
    135  O         30.8610    3.3740   66.8050 O.2   107  ASP107     -0.2718
    136  CB        27.9540    3.8180   67.7220 C.3   107  ASP107      0.1424
    137  CG        27.1310    3.4730   66.4960 C.2   107  ASP107      0.3668
    138  OD1       26.5480    2.3720   66.5140 O.co2 107  ASP107     -0.2456
    139  OD2       27.0700    4.2630   65.5270 O.co2 107  ASP107     -0.2456
    140  N         29.7520    1.5180   66.1230 N.am  108  ILE108     -0.1966
    141  CA        30.5930    1.3250   64.9530 C.3   108  ILE108      0.1727
    142  C         29.6700    1.2100   63.7360 C.2   108  ILE108      0.2616
    143  O         28.6040    0.5950   63.8010 O.2   108  ILE108     -0.2715
    144  CB        31.5240    0.0760   65.0780 C.3   108  ILE108      0.0290
    145  CG1       32.4110   -0.0060   63.8290 C.3   108  ILE108      0.0022
    146  CG2       30.7280   -1.1900   65.2540 C.3   108  ILE108      0.0023
    147  CD1       33.8260   -0.4350   64.1070 C.3   108  ILE108      0.0001
    148  N         30.0730    1.8310   62.6340 N.am  109  GLU109     -0.1977
    149  CA        29.2740    1.8260   61.4170 C.3   109  GLU109      0.1602
    150  C         30.0800    1.5460   60.1870 C.2   109  GLU109      0.2287
    151  O         31.0760    2.2200   59.9530 O.2   109  GLU109     -0.2864
    152  CB        28.6270    3.1890   61.1940 C.3   109  GLU109      0.0415
    153  CG        27.8300    3.7090   62.3460 C.3   109  GLU109      0.1163
    154  CD        26.4790    3.0720   62.3750 C.2   109  GLU109      0.3649
    155  OE1       26.0560    2.5820   61.3160 O.co2 109  GLU109     -0.2457
    156  OE2       25.8410    3.0470   63.4460 O.co2 109  GLU109     -0.2457
    157  N         17.0990   12.7310   62.7400 N.3   122  PHE122     -0.1241
    158  CA        18.1330   12.1590   63.6190 C.3   122  PHE122      0.1605
    159  C         19.3670   13.0150   63.5180 C.2   122  PHE122      0.2264
    160  O         20.3150   12.8710   64.2890 O.2   122  PHE122     -0.2867
    161  CB        18.4790   10.7160   63.2530 C.3   122  PHE122      0.0534
    162  CG        18.0760    9.7250   64.3070 C.ar  122  PHE122     -0.0203
    163  CD1       17.8230    8.3910   63.9750 C.ar  122  PHE122     -0.0042
    164  CD2       17.9430   10.1310   65.6400 C.ar  122  PHE122     -0.0042
    165  CE1       17.4450    7.4740   64.9540 C.ar  122  PHE122     -0.0003
    166  CE2       17.5690    9.2340   66.6240 C.ar  122  PHE122     -0.0003
    167  CZ        17.3180    7.8960   66.2870 C.ar  122  PHE122     -0.0000
    168  N         27.0340   10.3770   62.8860 N.3   147  TRP147     -0.1241
    169  CA        26.1110    9.3830   63.4160 C.3   147  TRP147      0.1605
    170  C         26.7270    8.4720   64.4680 C.2   147  TRP147      0.2264
    171  O         26.0920    8.1910   65.4890 O.2   147  TRP147     -0.2867
    172  CB        25.4880    8.5390   62.2990 C.3   147  TRP147      0.0550
    173  CG        24.4680    7.5660   62.8250 C.ar  147  TRP147      0.0003
    174  CD1       24.4540    6.2240   62.6230 C.ar  147  TRP147      0.0946
    175  CD2       23.3330    7.8560   63.6670 C.ar  147  TRP147      0.0152
    176  NE1       23.3900    5.6500   63.2780 N.ar  147  TRP147     -0.2442
    177  CE2       22.6810    6.6260   63.9230 C.ar  147  TRP147      0.0810
    178  CE3       22.8060    9.0340   64.2250 C.ar  147  TRP147      0.0012
    179  CZ2       21.5210    6.5290   64.7170 C.ar  147  TRP147      0.0191
    180  CZ3       21.6540    8.9420   65.0150 C.ar  147  TRP147      0.0001
    181  CH2       21.0260    7.6930   65.2550 C.ar  147  TRP147      0.0015
    182  N         25.0080    8.3320   68.1090 N.3   151  GLU151     -0.1245
    183  CA        24.4680    7.1020   68.6780 C.3   151  GLU151      0.1567
    184  C         25.2450    6.6070   69.8850 C.2   151  GLU151      0.2260
    185  O         24.6890    5.9220   70.7410 O.2   151  GLU151     -0.2867
    186  CB        24.3800    5.9690   67.6440 C.3   151  GLU151      0.0388
    187  CG        22.9670    5.3990   67.5750 C.3   151  GLU151      0.1160
    188  CD        22.8940    4.0120   66.9900 C.2   151  GLU151      0.3649
    189  OE1       22.0450    3.2320   67.4590 O.co2 151  GLU151     -0.2457
    190  OE2       23.6740    3.7000   66.0660 O.co2 151  GLU151     -0.2457
    191  N         23.5060    8.4490   72.6920 N.3   154  ILE154     -0.1231
    192  CA        22.1880    7.8900   72.9660 C.3   154  ILE154      0.1692
    193  C         22.2900    6.5110   73.6210 C.2   154  ILE154      0.2591
    194  O         21.4960    6.1690   74.5060 O.2   154  ILE154     -0.2718
    195  CB        21.3500    7.7930   71.6510 C.3   154  ILE154      0.0266
    196  CG1       21.0670    9.1880   71.1020 C.3   154  ILE154      0.0019
    197  CG2       20.0330    7.1200   71.9170 C.3   154  ILE154      0.0020
    198  CD1       20.6720    9.1930   69.6020 C.3   154  ILE154      0.0001
    199  N         23.2660    5.7150   73.1970 N.am  155  LYS155     -0.1980
    200  CA        23.4360    4.3760   73.7380 C.3   155  LYS155      0.1596
    201  C         24.0320    4.3990   75.1360 C.2   155  LYS155      0.2287
    202  O         23.8050    3.4840   75.9380 O.2   155  LYS155     -0.2864
    203  CB        24.2930    3.5400   72.7850 C.3   155  LYS155      0.0298
    204  CG        23.4870    3.0900   71.5750 C.3   155  LYS155      0.0038
    205  CD        24.3360    2.3500   70.5660 C.3   155  LYS155      0.0206
    206  CE        24.4790    0.8930   70.9420 C.3   155  LYS155      0.1093
    207  NZ        25.4310    0.2010   70.0090 N.3   155  LYS155     -0.1314
    208  N         21.2410    5.4530   77.5300 N.3   158  GLY158     -0.1225
    209  CA        20.3390    4.3320   77.6830 C.3   158  GLY158      0.1811
    210  C         18.8610    4.6620   77.6150 C.2   158  GLY158      0.2280
    211  O         18.0660    3.8420   77.1540 O.2   158  GLY158     -0.2866
    212  N         16.8910    5.7250   75.7310 N.3   160  GLY160     -0.1225
    213  CA        16.2610    5.8210   74.4330 C.3   160  GLY160      0.1811
    214  C         16.4740    7.1510   73.7240 C.2   160  GLY160      0.2280
    215  O         17.5410    7.7550   73.8040 O.2   160  GLY160     -0.2866
@<TRIPOS>BOND
     1    22    21    2
     2   151   150    2
     3    21    20    1
     4   150   149    1
     5   152   149    1
     6   152   153    1
     7   155   154   ar
     8    20    23    1
     9    20    19    1
    10   149   148    1
    11    23    24    1
    12   172   173    1
    13   172   169    1
    14   153   154    1
    15   154   156   ar
    16   174   173   ar
    17   174   176   ar
    18    26    24   ar
    19    26    28   ar
    20   148   142   am
    21   157   158    1
    22   173   175   ar
    23    24    25   ar
    24   168   169    1
    25   161   158    1
    26   161   162    1
    27   176   177   ar
    28   169   170    1
    29   159   158    1
    30   159   160    2
    31    28    29   ar
    32   175   177   ar
    33   175   178   ar
    34   142   143    2
    35   142   141    1
    36   145   147    1
    37   145   144    1
    38   177   179   ar
    39   163   162   ar
    40   163   165   ar
    41   125   124    2
    42    25    27   ar
    43   124   123    1
    44   178   180   ar
    45   162   164   ar
    46   170   171    2
    47   179   181   ar
    48    29    27   ar
    49   141   144    1
    50   141   140    1
    51   165   167   ar
    52   180   181   ar
    53   144   146    1
    54   123   126    1
    55   123   122    1
    56   139   137   ar
    57   128   127   ar
    58   128   130   ar
    59   164   166   ar
    60   126   127    1
    61    13    12    2
    62   190   188   ar
    63   140   134   am
    64   127   129   ar
    65   130   131   ar
    66   167   166   ar
    67    30    31    1
    68   122   118   am
    69   137   138   ar
    70   137   136    1
    71   135   134    2
    72    35    34    1
    73   134   133    1
    74   188   189   ar
    75   188   187    1
    76    12    11    1
    77   121   120    1
    78   131   129   ar
    79    34    31    1
    80    34    36    1
    81    31    32    1
    82   187   186    1
    83   118   119    2
    84   118   117    1
    85   186   183    1
    86   136   133    1
    87   133   132    1
    88   182   183    1
    89    11    10    1
    90    11    14    1
    91   120   117    1
    92    15    14    1
    93    15    16    1
    94    32    33    2
    95   117   116    1
    96    17    16    1
    97    17    18    1
    98   183   184    1
    99   198   196    1
   100    37    38    1
   101   116   110   am
   102   184   185    2
   103   207   206    1
   104     4     3    2
   105   205   206    1
   106   205   204    1
   107    38    39    1
   108   114   112    1
   109   110   111    2
   110   110   109    1
   111   196   195    1
   112     3     2    1
   113   204   203    1
   114     8     7    1
   115     8     9    1
   116   195   197    1
   117   195   192    1
   118     7     6    1
   119    39    40    2
   120   112   109    1
   121   112   113    1
   122   109   108    1
   123     2     5    1
   124     2     1    1
   125     6     5    1
   126   191   192    1
   127   115   113    1
   128   203   200    1
   129   192   193    1
   130   199   193   am
   131   199   200    1
   132   108   102   am
   133   106   105    2
   134   193   194    2
   135   214   215    2
   136   214   213    1
   137   200   201    1
   138   103   102    2
   139   102   101    1
   140   213   212    1
   141   105   107   am
   142   105   104    1
   143    60    59    2
   144   201   202    2
   145   104   101    1
   146   101   100    1
   147    72    71    2
   148    87    88    1
   149    87    86    1
   150    70    71    1
   151    70    69    1
   152    88    82    1
   153    59    69   am
   154    59    58    1
   155    71    73   am
   156    64    66   ar
   157    64    62   ar
   158   100    91   am
   159    61    58    1
   160    61    62    1
   161    66    67   ar
   162    73    74    1
   163    58    57    1
   164    74    77    1
   165    74    75    1
   166    62    63   ar
   167    86    83    1
   168   211   210    2
   169    82    75   am
   170    82    83    1
   171    46    45    1
   172   208   209    1
   173   210   209    1
   174    78    77    1
   175    78    79    1
   176    95    97   ar
   177    95    94   ar
   178    97    99   ar
   179    91    92    2
   180    91    90    1
   181    75    76    2
   182    80    79    1
   183    80    81    1
   184    67    68    1
   185    67    65   ar
   186    47    45    1
   187    83    84    1
   188    63    65   ar
   189    57    50   am
   190    45    42    1
   191    51    50    2
   192    93    94    1
   193    93    90    1
   194    94    96   ar
   195    90    89    1
   196    99    98   ar
   197    50    49    1
   198    84    85    2
   199    42    41    1
   200    42    43    1
   201    96    98   ar
   202    43    44    2
   203    53    52    1
   204    53    54    1
   205    49    48    1
   206    49    52    1
   207    55    54   ar
   208    54    56   ar
