@<TRIPOS>MOLECULE
tmp/1qr3A00.pdb
 221 215 0 0 0
SMALL
GASTEIGER

@<TRIPOS>ATOM
      1  N          3.6620   23.2720   31.3860 N.3    20  TYR20      -0.1241
      2  CA         4.2880   22.0140   30.9890 C.3    20  TYR20       0.1605
      3  C          4.9060   22.0650   29.5970 C.2    20  TYR20       0.2264
      4  O          4.4560   22.8310   28.7500 O.2    20  TYR20      -0.2867
      5  CB         3.2830   20.8580   31.1650 C.3    20  TYR20       0.0534
      6  CG         2.1740   20.8640   30.1370 C.ar   20  TYR20      -0.0201
      7  CD1        1.1910   21.8900   30.1210 C.ar   20  TYR20      -0.0009
      8  CD2        2.1500   19.8040   29.2090 C.ar   20  TYR20      -0.0009
      9  CE1        0.1660   21.8410   29.1650 C.ar   20  TYR20       0.0417
     10  CE2        1.1280   19.7450   28.2630 C.ar   20  TYR20       0.0417
     11  CZ         0.1520   20.7560   28.2540 C.ar   20  TYR20       0.1957
     12  OH        -0.8520   20.6570   27.3130 O.3    20  TYR20      -0.2866
     13  N          0.7880   27.0500   29.6480 N.3    28  HIS28      -0.1226
     14  CA         0.2260   27.1740   30.9960 C.3    28  HIS28       0.1752
     15  C         -0.7850   26.0820   31.2870 C.2    28  HIS28       0.2597
     16  O         -1.6620   25.7870   30.4840 O.2    28  HIS28      -0.2718
     17  CB        -0.4230   28.5610   31.1200 C.3    28  HIS28       0.0759
     18  CG        -1.1490   28.7880   32.4220 C.ar   28  HIS28       0.0818
     19  ND1       -0.5870   29.2760   33.5260 N.ar   28  HIS28      -0.2268
     20  CD2       -2.4790   28.5030   32.6870 C.ar   28  HIS28       0.1154
     21  CE1       -1.5270   29.2980   34.5000 C.ar   28  HIS28       0.1986
     22  NE2       -2.6910   28.8170   33.9850 N.ar   28  HIS28      -0.2212
     23  N         -0.6510   25.5070   32.4900 N.am   29  THR29      -0.1939
     24  CA        -1.6720   24.5020   32.8510 C.3    29  THR29       0.2028
     25  C         -2.4690   24.7390   34.1660 C.2    29  THR29       0.2642
     26  O         -3.6560   24.4470   34.2970 O.2    29  THR29      -0.2714
     27  CB        -1.0360   23.0930   32.8390 C.3    29  THR29       0.1808
     28  OG1       -2.0020   22.0830   33.1140 O.3    29  THR29      -0.2208
     29  CG2        0.1200   22.9700   33.8260 C.3    29  THR29       0.0379
     30  N         -1.7410   25.3490   35.1130 N.am   30  CYS30      -0.1967
     31  CA        -2.2910   25.6140   36.4480 C.3    30  CYS30       0.1712
     32  C         -1.6400   26.8420   37.0950 C.2    30  CYS30       0.2296
     33  O         -0.5350   27.2500   36.7600 O.2    30  CYS30      -0.2864
     34  CB        -1.9480   24.4450   37.3910 C.3    30  CYS30       0.0983
     35  SG        -3.0740   23.0120   37.1070 S.3    30  CYS30      -0.0798
     36  N         -4.0180   17.5950   41.7660 N.3    45  HIS45      -0.1226
     37  CA        -4.4560   17.2020   40.4070 C.3    45  HIS45       0.1752
     38  C         -3.6820   17.8260   39.2470 C.2    45  HIS45       0.2596
     39  O         -3.7510   17.3500   38.1330 O.2    45  HIS45      -0.2718
     40  CB        -5.9650   17.3990   40.1780 C.3    45  HIS45       0.0759
     41  CG        -6.3750   18.8730   40.1110 C.ar   45  HIS45       0.0818
     42  ND1       -7.0880   19.4670   41.0910 N.ar   45  HIS45      -0.2268
     43  CD2       -6.1560   19.8060   39.0760 C.ar   45  HIS45       0.1154
     44  CE1       -7.3270   20.7530   40.7020 C.ar   45  HIS45       0.1986
     45  NE2       -6.7530   20.9470   39.4760 N.ar   45  HIS45      -0.2212
     46  N         -2.9730   18.9450   39.5790 N.am   46  CYS46      -0.1970
     47  CA        -2.1140   19.6410   38.5960 C.3    46  CYS46       0.1712
     48  C         -0.8470   18.9310   38.2010 C.2    46  CYS46       0.2296
     49  O         -0.2880   19.1410   37.1440 O.2    46  CYS46      -0.2864
     50  CB        -1.7070   21.0510   39.0330 C.3    46  CYS46       0.0983
     51  SG        -3.1720   22.1750   38.9870 S.3    46  CYS46      -0.0798
     52  N         -0.6340   15.4780   38.3500 N.3    48  ASP48      -0.1225
     53  CA        -1.1790   14.1030   38.4050 C.3    48  ASP48       0.1805
     54  C         -0.7640   13.2070   37.2420 C.2    48  ASP48       0.2597
     55  O         -1.5300   12.5930   36.5130 O.2    48  ASP48      -0.2718
     56  CB        -2.7220   14.1920   38.4460 C.3    48  ASP48       0.1424
     57  CG        -3.4120   13.3780   39.5460 C.2    48  ASP48       0.3668
     58  OD1       -2.7650   12.6510   40.3150 O.co2  48  ASP48      -0.2456
     59  OD2       -4.6320   13.5010   39.6050 O.co2  48  ASP48      -0.2456
     60  N          0.5140   13.3190   37.0000 N.am   49  ARG49      -0.1979
     61  CA         0.8530   13.3400   35.5850 C.3    49  ARG49       0.1597
     62  C          2.3180   13.1870   35.3790 C.2    49  ARG49       0.2287
     63  O          3.1680   13.5270   36.1990 O.2    49  ARG49      -0.2864
     64  CB         0.5160   14.6640   34.8860 C.3    49  ARG49       0.0334
     65  CG        -0.8040   14.6550   34.1350 C.3    49  ARG49       0.0492
     66  CD        -0.7820   13.6210   33.0070 C.3    49  ARG49       0.2205
     67  NE        -2.0420   12.8720   32.9850 N.pl3  49  ARG49      -0.0865
     68  CZ        -2.0840   11.5290   33.2310 C.cat  49  ARG49       0.5346
     69  NH1       -3.2770   10.9280   33.2410 N.pl3  49  ARG49       0.1354
     70  NH2       -0.9670   10.8090   33.4520 N.pl3  49  ARG49       0.1354
     71  N         -4.0360   11.9140   48.8170 N.3    83  TRP83      -0.1241
     72  CA        -4.7280   12.2990   47.5800 C.3    83  TRP83       0.1605
     73  C         -5.1970   11.0870   46.7350 C.2    83  TRP83       0.2264
     74  O         -4.4660   10.1570   46.4410 O.2    83  TRP83      -0.2867
     75  CB        -3.7760   13.2210   46.7630 C.3    83  TRP83       0.0550
     76  CG        -4.2660   13.4290   45.3400 C.ar   83  TRP83       0.0003
     77  CD1       -3.6130   13.0330   44.1680 C.ar   83  TRP83       0.0946
     78  CD2       -5.4320   14.1410   44.8830 C.ar   83  TRP83       0.0152
     79  NE1       -4.2750   13.4450   43.0540 N.ar   83  TRP83      -0.2442
     80  CE2       -5.4050   14.1340   43.4430 C.ar   83  TRP83       0.0810
     81  CE3       -6.4820   14.7900   45.5510 C.ar   83  TRP83       0.0012
     82  CZ2       -6.4220   14.7800   42.7120 C.ar   83  TRP83       0.0191
     83  CZ3       -7.4930   15.4200   44.8020 C.ar   83  TRP83       0.0001
     84  CH2       -7.4530   15.4140   43.4050 C.ar   83  TRP83       0.0015
     85  N         -6.8110   10.6600   43.0550 N.3    85  THR85      -0.1218
     86  CA        -7.4280   11.2310   41.8400 C.3    85  THR85       0.1862
     87  C         -8.7980   10.7350   41.3550 C.2    85  THR85       0.2287
     88  O         -9.5380   11.4410   40.6960 O.2    85  THR85      -0.2866
     89  CB        -6.4950   11.1910   40.6490 C.3    85  THR85       0.1770
     90  OG1       -6.9800   12.1180   39.6570 O.3    85  THR85      -0.2211
     91  CG2       -6.3670    9.7690   40.1060 C.3    85  THR85       0.0375
     92  N        -11.8320   13.4050   43.8910 N.3    88  VAL88      -0.1231
     93  CA       -11.5450   14.8180   44.2120 C.3    88  VAL88       0.1692
     94  C        -12.2460   15.3440   45.4580 C.2    88  VAL88       0.2591
     95  O        -11.7170   16.1020   46.2610 O.2    88  VAL88      -0.2718
     96  CB       -11.9910   15.8150   43.1140 C.3    88  VAL88       0.0266
     97  CG1      -11.1530   17.0930   43.2940 C.3    88  VAL88       0.0020
     98  CG2      -11.9900   15.2770   41.6860 C.3    88  VAL88       0.0020
     99  N        -13.4960   14.8810   45.5660 N.am   89  ALA89      -0.1980
    100  CA       -14.3360   15.3320   46.6820 C.3    89  ALA89       0.1597
    101  C        -13.9610   14.8080   48.0790 C.2    89  ALA89       0.2287
    102  O        -14.4230   15.2960   49.0860 O.2    89  ALA89      -0.2864
    103  CB       -15.8040   14.9880   46.4380 C.3    89  ALA89       0.0319
    104  N         -9.6070   30.2130   32.0350 N.3   134  LEU134     -0.1245
    105  CA       -10.7360   30.6530   31.2130 C.3   134  LEU134      0.1561
    106  C        -11.6020   31.8070   31.7500 C.2   134  LEU134      0.2260
    107  O        -11.9940   31.9030   32.9280 O.2   134  LEU134     -0.2867
    108  CB       -11.6640   29.4810   30.8970 C.3   134  LEU134      0.0270
    109  CG       -11.0920   28.2000   30.2730 C.3   134  LEU134      0.0019
    110  CD1      -12.2930   27.4120   29.7340 C.3   134  LEU134      0.0001
    111  CD2      -10.0690   28.3670   29.1650 C.3   134  LEU134      0.0001
    112  N        -16.0880   27.1040   28.9210 N.3   138  ASN138     -0.1240
    113  CA       -15.7880   26.6660   27.5370 C.3   138  ASN138      0.1653
    114  C        -15.0920   27.7020   26.6550 C.2   138  ASN138      0.2266
    115  O        -15.0620   27.5840   25.4280 O.2   138  ASN138     -0.2867
    116  CB       -17.0170   26.1690   26.7490 C.3   138  ASN138      0.1155
    117  CG       -17.4280   24.8430   27.3380 C.2   138  ASN138      0.2627
    118  OD1      -16.6210   23.9570   27.5710 O.2   138  ASN138     -0.2716
    119  ND2      -18.6990   24.7380   27.6470 N.am  138  ASN138     -0.0877
    120  N         -8.2090   30.8850   27.6190 N.3   141  LEU141     -0.1245
    121  CA        -7.3950   31.4360   28.7030 C.3   141  LEU141      0.1561
    122  C         -7.2710   32.9560   28.5820 C.2   141  LEU141      0.2260
    123  O         -7.2170   33.4810   27.4650 O.2   141  LEU141     -0.2867
    124  CB        -5.9840   30.8820   28.6440 C.3   141  LEU141      0.0270
    125  CG        -5.8700   29.3930   28.9350 C.3   141  LEU141      0.0019
    126  CD1       -4.3990   29.0190   28.9020 C.3   141  LEU141      0.0001
    127  CD2       -6.5130   28.9670   30.2490 C.3   141  LEU141      0.0001
    128  N        -23.5020   22.6760   47.6840 N.3   164  TRP164     -0.1241
    129  CA       -22.7390   21.5340   47.2400 C.3   164  TRP164      0.1605
    130  C        -23.1200   20.2140   47.8510 C.2   164  TRP164      0.2264
    131  O        -22.6560   19.1560   47.4400 O.2   164  TRP164     -0.2867
    132  CB       -21.2720   21.7780   47.5040 C.3   164  TRP164      0.0550
    133  CG       -20.6830   22.5960   46.3730 C.ar  164  TRP164      0.0003
    134  CD1      -20.3910   23.9600   46.3520 C.ar  164  TRP164      0.0946
    135  CD2      -20.2100   22.0890   45.1140 C.ar  164  TRP164      0.0152
    136  NE1      -19.7820   24.3040   45.1830 N.ar  164  TRP164     -0.2442
    137  CE2      -19.6520   23.1940   44.3850 C.ar  164  TRP164      0.0810
    138  CE3      -20.1550   20.7850   44.5850 C.ar  164  TRP164      0.0012
    139  CZ2      -19.0500   22.9790   43.1170 C.ar  164  TRP164      0.0191
    140  CZ3      -19.5200   20.6020   43.3350 C.ar  164  TRP164      0.0001
    141  CH2      -18.9740   21.6780   42.5760 C.ar  164  TRP164      0.0015
    142  N        -20.6030   16.7590   48.8600 N.3   167  THR167     -0.1218
    143  CA       -19.3750   16.9220   48.0520 C.3   167  THR167      0.1862
    144  C        -18.3100   17.7620   48.7390 C.2   167  THR167      0.2287
    145  O        -17.1250   17.4770   48.7350 O.2   167  THR167     -0.2866
    146  CB       -19.7330   17.5500   46.7020 C.3   167  THR167      0.1770
    147  OG1      -20.6410   16.6800   46.0430 O.3   167  THR167     -0.2211
    148  CG2      -18.5770   17.9050   45.7940 C.3   167  THR167      0.0375
    149  N        -12.1050   29.1490   37.0500 N.3   184  CYS184     -0.1221
    150  CA       -12.4710   28.3400   35.8620 C.3   184  CYS184      0.1808
    151  C        -11.2840   27.5000   35.4030 C.2   184  CYS184      0.2601
    152  O        -10.2360   27.5090   36.0590 O.2   184  CYS184     -0.2717
    153  CB       -13.0160   29.2440   34.7160 C.3   184  CYS184      0.0970
    154  SG       -14.0960   28.4660   33.4640 S.3   184  CYS184     -0.0800
    155  N        -11.4210   26.8220   34.2700 N.am  185  GLN185     -0.1965
    156  CA       -10.2700   25.9910   33.9780 C.3   185  GLN185      0.1733
    157  C         -8.9780   26.7570   33.7040 C.2   185  GLN185      0.2616
    158  O         -8.9870   27.7990   33.0500 O.2   185  GLN185     -0.2715
    159  CB       -10.5670   24.9270   32.8850 C.3   185  GLN185      0.0408
    160  CG       -11.3960   23.6890   33.3860 C.3   185  GLN185      0.0908
    161  CD       -12.8320   24.0870   33.5560 C.2   185  GLN185      0.2608
    162  OE1      -13.3100   25.0300   32.9680 O.2   185  GLN185     -0.2717
    163  NE2      -13.5570   23.3650   34.3710 N.am  185  GLN185     -0.0878
    164  N         -7.8760   26.2430   34.2570 N.am  186  GLY186     -0.1955
    165  CA        -6.6330   26.9810   34.1050 C.3   186  GLY186      0.1869
    166  C         -6.2750   27.8200   35.3360 C.2   186  GLY186      0.2309
    167  O         -5.1760   28.3310   35.4360 O.2   186  GLY186     -0.2863
    168  N         -6.9110   26.4230   38.5250 N.3   188  SER188     -0.1217
    169  CA        -6.7240   25.5250   39.6920 C.3   188  SER188      0.1889
    170  C         -5.2820   25.3870   40.0660 C.2   188  SER188      0.2288
    171  O         -4.3780   25.6280   39.2820 O.2   188  SER188     -0.2866
    172  CB        -7.3700   24.1650   39.4500 C.3   188  SER188      0.2089
    173  OG        -6.5890   23.5200   38.4370 O.3   188  SER188     -0.2183
    174  N         -7.0820   26.6350   44.6710 N.3   206  THR206     -0.1203
    175  CA        -8.2450   26.3240   43.8180 C.3   206  THR206      0.1994
    176  C         -8.3000   24.8430   43.3510 C.2   206  THR206      0.2619
    177  O         -7.3360   24.3210   42.8260 O.2   206  THR206     -0.2717
    178  CB        -8.2440   27.2080   42.5830 C.3   206  THR206      0.1784
    179  OG1       -8.1420   28.6130   42.9370 O.3   206  THR206     -0.2211
    180  CG2       -9.4270   26.9240   41.6860 C.3   206  THR206      0.0376
    181  N         -9.4220   24.2000   43.5990 N.am  207  SER207     -0.1937
    182  CA        -9.4830   22.7570   43.2910 C.3   207  SER207      0.2055
    183  C        -10.5800   22.3860   42.2710 C.2   207  SER207      0.2643
    184  O        -10.2810   21.8840   41.1890 O.2   207  SER207     -0.2714
    185  CB        -9.6610   22.0240   44.6510 C.3   207  SER207      0.2130
    186  OG        -9.9220   20.6150   44.5080 O.3   207  SER207     -0.2179
    187  N        -11.8480   22.6950   42.6210 N.am  208  PHE208     -0.1959
    188  CA       -12.8890   22.3050   41.6930 C.3   208  PHE208      0.1771
    189  C        -14.0620   23.2390   41.5540 C.2   208  PHE208      0.2619
    190  O        -14.3790   23.9700   42.4820 O.2   208  PHE208     -0.2715
    191  CB       -13.3730   20.8590   41.9310 C.3   208  PHE208      0.0574
    192  CG       -14.0700   20.6470   43.2470 C.ar  208  PHE208     -0.0200
    193  CD1      -13.3190   20.1830   44.3490 C.ar  208  PHE208     -0.0042
    194  CD2      -15.4460   20.8810   43.3390 C.ar  208  PHE208     -0.0042
    195  CE1      -13.9790   19.8740   45.5500 C.ar  208  PHE208     -0.0003
    196  CE2      -16.1020   20.5650   44.5320 C.ar  208  PHE208     -0.0003
    197  CZ       -15.3650   20.0320   45.6010 C.ar  208  PHE208     -0.0000
    198  N        -14.6890   23.1690   40.3670 N.am  209  VAL209     -0.1963
    199  CA       -15.9970   23.7700   40.0460 C.3   209  VAL209      0.1727
    200  C        -17.0870   22.7190   39.7030 C.2   209  VAL209      0.2617
    201  O        -16.8900   21.5040   39.6970 O.2   209  VAL209     -0.2715
    202  CB       -15.8930   24.8190   38.9250 C.3   209  VAL209      0.0290
    203  CG1      -15.0390   26.0330   39.3490 C.3   209  VAL209      0.0023
    204  CG2      -15.3200   24.2090   37.6620 C.3   209  VAL209      0.0023
    205  N        -18.2460   23.2490   39.3740 N.am  210  SER210     -0.1936
    206  CA       -19.3830   22.4610   38.9040 C.3   210  SER210      0.2055
    207  C        -19.1440   21.8090   37.5600 C.2   210  SER210      0.2642
    208  O        -18.5380   22.3340   36.6300 O.2   210  SER210     -0.2714
    209  CB       -20.6220   23.3530   38.8670 C.3   210  SER210      0.2130
    210  OG       -21.7620   22.6260   38.4270 O.3   210  SER210     -0.2179
    211  N        -19.6360   20.5730   37.4830 N.am  211  ARG211     -0.1977
    212  CA       -19.6740   19.9460   36.1650 C.3   211  ARG211      0.1597
    213  C        -20.5410   20.7400   35.1660 C.2   211  ARG211      0.2287
    214  O        -20.3220   20.7650   33.9680 O.2   211  ARG211     -0.2864
    215  CB       -20.1150   18.4840   36.2940 C.3   211  ARG211      0.0334
    216  CG       -19.0890   17.6010   37.0670 C.3   211  ARG211      0.0492
    217  CD       -19.5090   16.1110   37.2290 C.3   211  ARG211      0.2205
    218  NE       -18.4610   15.2490   37.8120 N.pl3 211  ARG211     -0.0865
    219  CZ       -18.8190   14.2560   38.6550 C.cat 211  ARG211      0.5346
    220  NH1      -20.1010   14.0140   38.9440 N.pl3 211  ARG211      0.1354
    221  NH2      -17.8720   13.5050   39.2010 N.pl3 211  ARG211      0.1354
@<TRIPOS>BOND
     1   115   114    2
     2   114   113    1
     3   116   117    1
     4   116   113    1
     5    12    11    1
     6   117   118    2
     7   117   119   am
     8   123   122    2
     9   113   112    1
    10   120   121    1
    11    11    10   ar
    12    11     9   ar
    13    10     8   ar
    14   122   121    1
    15   124   121    1
    16   124   125    1
    17     4     3    2
    18   126   125    1
    19   125   127    1
    20     9     7   ar
    21   111   109    1
    22     8     6   ar
    23     3     2    1
    24    13    14    1
    25   110   109    1
    26     7     6   ar
    27     6     5    1
    28   109   108    1
    29    16    15    2
    30   108   105    1
    31     2     5    1
    32     2     1    1
    33    14    17    1
    34    14    15    1
    35    17    18    1
    36   105   106    1
    37   105   104    1
    38    15    23   am
    39   106   107    2
    40    18    20   ar
    41    18    19   ar
    42    23    24    1
    43    20    22   ar
    44    27    24    1
    45    27    28    1
    46    27    29    1
    47    24    25    1
    48   159   160    1
    49   159   156    1
    50   162   161    2
    51    67    66    1
    52    67    68    2
    53    66    65    1
    54   158   157    2
    55    68    69    1
    56    68    70    1
    57   160   161    1
    58   154   153    1
    59    19    21   ar
    60   161   163   am
    61   157   156    1
    62   157   164   am
    63   214   213    2
    64   156   155    1
    65    22    21   ar
    66   165   164    1
    67   165   166    1
    68    65    64    1
    69    25    26    2
    70    25    30   am
    71   155   151   am
    72   153   150    1
    73    64    61    1
    74    30    31    1
    75   213   212    1
    76   166   167    2
    77    62    61    1
    78    62    63    2
    79   151   150    1
    80   151   152    2
    81    61    60    1
    82   150   149    1
    83   212   215    1
    84   212   211    1
    85   215   216    1
    86    31    32    1
    87    31    34    1
    88    55    54    2
    89   208   207    2
    90    33    32    2
    91    60    54   am
    92   216   217    1
    93    35    34    1
    94    35    51    1
    95    49    48    2
    96   217   218    1
    97    54    53    1
    98   211   207   am
    99   207   206    1
   100   204   202    1
   101   218   219    2
   102    39    38    2
   103    48    47    1
   104    52    53    1
   105    53    56    1
   106   210   209    1
   107   173   172    1
   108    56    57    1
   109   168   169    1
   110    47    50    1
   111    47    46    1
   112   219   220    1
   113   219   221    1
   114   209   206    1
   115   206   205    1
   116   202   203    1
   117   202   199    1
   118    51    50    1
   119    43    45   ar
   120    43    41   ar
   121    38    46   am
   122    38    37    1
   123   171   170    2
   124   205   200   am
   125   172   169    1
   126    45    44   ar
   127    57    59   ar
   128    57    58   ar
   129    90    89    1
   130   169   170    1
   131   201   200    2
   132   200   199    1
   133   199   198    1
   134    91    89    1
   135    41    40    1
   136    41    42   ar
   137    40    37    1
   138   198   189   am
   139    37    36    1
   140    89    86    1
   141    88    87    2
   142    44    42   ar
   143   184   183    2
   144    87    86    1
   145   189   188    1
   146   189   190    2
   147   180   178    1
   148    98    96    1
   149   188   191    1
   150   188   187    1
   151    86    85    1
   152   191   192    1
   153   183   187   am
   154   183   182    1
   155   141   139   ar
   156   141   140   ar
   157   178   179    1
   158   178   175    1
   159    82    84   ar
   160    82    80   ar
   161   177   176    2
   162    79    80   ar
   163    79    77   ar
   164    96    97    1
   165    96    93    1
   166   139   137   ar
   167   192   194   ar
   168   192   193   ar
   169   182   181    1
   170   182   185    1
   171   140   138   ar
   172   194   196   ar
   173   176   181   am
   174   176   175    1
   175    84    83   ar
   176    80    78   ar
   177   175   174    1
   178    92    93    1
   179    77    76   ar
   180    93    94    1
   181   193   195   ar
   182   137   135   ar
   183   137   136   ar
   184   186   185    1
   185   196   197   ar
   186   138   135   ar
   187    83    81   ar
   188    78    76   ar
   189    78    81   ar
   190   135   133   ar
   191   136   134   ar
   192    76    75    1
   193    94    99   am
   194    94    95    2
   195   195   197   ar
   196    99   100    1
   197   148   146    1
   198   147   146    1
   199   134   133   ar
   200   133   132    1
   201   103   100    1
   202    74    73    2
   203   100   101    1
   204   146   143    1
   205    73    72    1
   206    75    72    1
   207   129   132    1
   208   129   128    1
   209   129   130    1
   210   131   130    2
   211    72    71    1
   212   143   144    1
   213   143   142    1
   214   101   102    2
   215   145   144    2
