@<TRIPOS>MOLECULE
tmp/1qrnD00.pdb
 83 82 0 0 0
SMALL
GASTEIGER

@<TRIPOS>ATOM
      1  N         90.2350   17.5770    6.5500 N.3    27  ARG27      -0.1231
      2  CA        90.3550   16.3080    7.2590 C.3    27  ARG27       0.1694
      3  C         89.4190   15.2510    6.6680 C.2    27  ARG27       0.2592
      4  O         89.5380   14.0680    6.9740 O.2    27  ARG27      -0.2718
      5  CB        90.0370   16.5070    8.7450 C.3    27  ARG27       0.0321
      6  CG        90.0670   15.2320    9.5820 C.3    27  ARG27       0.0489
      7  CD        89.6590   15.4740   11.0460 C.3    27  ARG27       0.2205
      8  NE        90.6390   16.2650   11.7890 N.pl3  27  ARG27      -0.0865
      9  CZ        91.8850   15.8690   12.0440 C.cat  27  ARG27       0.5346
     10  NH1       92.3130   14.6850   11.6180 N.pl3  27  ARG27       0.1354
     11  NH2       92.7100   16.6560   12.7230 N.pl3  27  ARG27       0.1354
     12  N         88.4950   15.6790    5.8160 N.am   28  GLY28      -0.1957
     13  CA        87.5590   14.7480    5.2200 C.3    28  GLY28       0.1869
     14  C         88.1000   14.0770    3.9690 C.2    28  GLY28       0.2309
     15  O         87.5070   13.1100    3.4600 O.2    28  GLY28      -0.2863
     16  N         89.5980   11.8610    1.2080 N.3    30  GLN30      -0.1231
     17  CA        89.6140   10.4060    1.1240 C.3    30  GLN30       0.1698
     18  C         90.4120    9.8750   -0.0520 C.2    30  GLN30       0.2592
     19  O         90.8640    8.7300   -0.0340 O.2    30  GLN30      -0.2718
     20  CB        88.1840    9.8750    1.0320 C.3    30  GLN30       0.0381
     21  CG        87.2520   10.3620    2.1290 C.3    30  GLN30       0.0905
     22  CD        86.1040    9.4090    2.3510 C.2    30  GLN30       0.2608
     23  OE1       86.3120    8.2530    2.7430 O.2    30  GLN30      -0.2717
     24  NE2       84.8860    9.8770    2.0960 N.am   30  GLN30      -0.0878
     25  N         90.5640   10.7050   -1.0790 N.am   31  SER31      -0.1952
     26  CA        91.3110   10.3400   -2.2760 C.3    31  SER31       0.1924
     27  C         92.5200   11.2570   -2.3970 C.2    31  SER31       0.2314
     28  O         92.4210   12.4560   -2.1660 O.2    31  SER31      -0.2863
     29  CB        90.4200   10.4810   -3.5050 C.3    31  SER31       0.2116
     30  OG        89.2350    9.7240   -3.3410 O.3    31  SER31      -0.2180
     31  N         96.0430   11.9500   -4.9560 N.3    33  PHE33      -0.1241
     32  CA        96.6920   11.6260   -6.2140 C.3    33  PHE33       0.1605
     33  C         97.9670   12.4010   -6.4260 C.2    33  PHE33       0.2264
     34  O         98.1980   13.4290   -5.7820 O.2    33  PHE33      -0.2867
     35  CB        95.7440   11.9420   -7.3730 C.3    33  PHE33       0.0534
     36  CG        94.3470   11.4470   -7.1590 C.ar   33  PHE33      -0.0203
     37  CD1       94.0460   10.0940   -7.2980 C.ar   33  PHE33      -0.0042
     38  CD2       93.3380   12.3290   -6.7770 C.ar   33  PHE33      -0.0042
     39  CE1       92.7540    9.6250   -7.0570 C.ar   33  PHE33      -0.0003
     40  CE2       92.0500   11.8750   -6.5350 C.ar   33  PHE33      -0.0003
     41  CZ        91.7530   10.5170   -6.6740 C.ar   33  PHE33      -0.0000
     42  N         90.9430   14.7990   -2.9080 N.3    91  THR91      -0.1203
     43  CA        89.5090   15.0700   -2.9290 C.3    91  THR91       0.1994
     44  C         88.7910   14.3600   -1.7770 C.2    91  THR91       0.2619
     45  O         89.4030   13.5770   -1.0380 O.2    91  THR91      -0.2717
     46  CB        88.8720   14.6760   -4.2930 C.3    91  THR91       0.1784
     47  OG1       87.5230   15.1580   -4.3500 O.3    91  THR91      -0.2211
     48  CG2       88.8860   13.1810   -4.4790 C.3    91  THR91       0.0376
     49  N         87.5020   14.6620   -1.6180 N.am   92  THR92      -0.1938
     50  CA        86.6750   14.0820   -0.5630 C.3    92  THR92       0.2028
     51  C         85.7230   13.0040   -1.0700 C.2    92  THR92       0.2642
     52  O         85.4920   12.0070   -0.3940 O.2    92  THR92      -0.2714
     53  CB        85.7860   15.1400    0.0840 C.3    92  THR92       0.1808
     54  OG1       85.1010   15.8590   -0.9490 O.3    92  THR92      -0.2208
     55  CG2       86.5940   16.0950    0.9380 C.3    92  THR92       0.0379
     56  N         85.1650   13.2030   -2.2560 N.am   93  ASP93      -0.1957
     57  CA        84.2070   12.2440   -2.7790 C.3    93  ASP93       0.1840
     58  C         84.0780   12.3330   -4.2950 C.2    93  ASP93       0.2623
     59  O         84.7270   13.1570   -4.9390 O.2    93  ASP93      -0.2715
     60  CB        82.8450   12.4980   -2.1380 C.3    93  ASP93       0.1450
     61  CG        82.3300   13.9040   -2.4270 C.2    93  ASP93       0.3671
     62  OD1       82.8700   14.8840   -1.8500 O.co2  93  ASP93      -0.2456
     63  OD2       81.3970   14.0250   -3.2540 O.co2  93  ASP93      -0.2456
     64  N         83.2210   11.4850   -4.8580 N.am   94  SER94      -0.1936
     65  CA        83.0260   11.4500   -6.3000 C.3    94  SER94       0.2055
     66  C         82.4180   12.7160   -6.8790 C.2    94  SER94       0.2643
     67  O         82.4590   12.9260   -8.0980 O.2    94  SER94      -0.2714
     68  CB        82.1930   10.2270   -6.6960 C.3    94  SER94       0.2130
     69  OG        81.0090   10.1200   -5.9350 O.3    94  SER94      -0.2179
     70  N         81.8790   13.5680   -6.0120 N.am   95  TRP95      -0.1973
     71  CA        81.2830   14.8270   -6.4600 C.3    95  TRP95       0.1640
     72  C         82.0890   16.0130   -5.9470 C.2    95  TRP95       0.2290
     73  O         81.7980   17.1680   -6.2730 O.2    95  TRP95      -0.2864
     74  CB        79.8500   14.9590   -5.9480 C.3    95  TRP95       0.0576
     75  CG        78.7740   14.5580   -6.9140 C.ar   95  TRP95       0.0006
     76  CD1       78.9340   13.9980   -8.1500 C.ar   95  TRP95       0.0946
     77  CD2       77.3640   14.6710   -6.7000 C.ar   95  TRP95       0.0152
     78  NE1       77.7030   13.7530   -8.7220 N.ar   95  TRP95      -0.2442
     79  CE2       76.7220   14.1560   -7.8530 C.ar   95  TRP95       0.0810
     80  CE3       76.5750   15.1530   -5.6390 C.ar   95  TRP95       0.0012
     81  CZ2       75.3290   14.1090   -7.9810 C.ar   95  TRP95       0.0191
     82  CZ3       75.1840   15.1050   -5.7660 C.ar   95  TRP95       0.0001
     83  CH2       74.5780   14.5850   -6.9330 C.ar   95  TRP95       0.0015
@<TRIPOS>BOND
     1    78    76   ar
     2    78    79   ar
     3    76    75   ar
     4    67    66    2
     5    81    79   ar
     6    81    83   ar
     7    79    77   ar
     8    35    36    1
     9    35    32    1
    10    37    36   ar
    11    37    39   ar
    12    36    38   ar
    13    39    41   ar
    14    83    82   ar
    15    75    77   ar
    16    75    74    1
    17    66    65    1
    18    66    70   am
    19    38    40   ar
    20    77    80   ar
    21    68    65    1
    22    68    69    1
    23    41    40   ar
    24    71    70    1
    25    71    74    1
    26    71    72    1
    27    33    32    1
    28    33    34    2
    29    65    64    1
    30    73    72    2
    31    32    31    1
    32    82    80   ar
    33    59    58    2
    34    64    58   am
    35    48    46    1
    36    47    46    1
    37    58    57    1
    38    46    43    1
    39    29    30    1
    40    29    26    1
    41    63    61   ar
    42    43    42    1
    43    43    44    1
    44    57    56    1
    45    57    60    1
    46    61    60    1
    47    61    62   ar
    48    27    26    1
    49    27    28    2
    50    26    25    1
    51    56    51   am
    52    44    49   am
    53    44    45    2
    54    49    50    1
    55    25    18   am
    56    51    50    1
    57    51    52    2
    58    54    53    1
    59    50    53    1
    60    18    19    2
    61    18    17    1
    62    53    55    1
    63    20    17    1
    64    20    21    1
    65    17    16    1
    66    24    22   am
    67    21    22    1
    68    22    23    2
    69    15    14    2
    70    14    13    1
    71    13    12    1
    72    12     3   am
    73     1     2    1
    74     3     4    2
    75     3     2    1
    76     2     5    1
    77     5     6    1
    78     6     7    1
    79     7     8    1
    80    10     9    1
    81     8     9    2
    82     9    11    1
