@<TRIPOS>MOLECULE
tmp/1qs0A00.pdb
 152 146 0 0 0
SMALL
GASTEIGER

@<TRIPOS>ATOM
      1  N         -4.4350  -25.9210   94.1130 N.3   106  GLU106     -0.1245
      2  CA        -3.3020  -25.0010   94.0560 C.3   106  GLU106      0.1567
      3  C         -1.9530  -25.6930   94.2320 C.2   106  GLU106      0.2260
      4  O         -0.9130  -25.0380   94.2550 O.2   106  GLU106     -0.2867
      5  CB        -3.4550  -23.9490   95.1510 C.3   106  GLU106      0.0388
      6  CG        -4.6600  -23.0360   94.9880 C.3   106  GLU106      0.1160
      7  CD        -4.9680  -22.2510   96.2540 C.2   106  GLU106      0.3649
      8  OE1       -4.0350  -21.6580   96.8420 O.co2 106  GLU106     -0.2457
      9  OE2       -6.1500  -22.2260   96.6570 O.co2 106  GLU106     -0.2457
     10  N          2.6720  -18.1800  102.8720 N.3   125  THR125     -0.1203
     11  CA         1.4880  -17.9050  103.6520 C.3   125  THR125      0.1994
     12  C          1.1950  -19.2810  104.2440 C.2   125  THR125      0.2618
     13  O          2.1040  -20.1120  104.3660 O.2   125  THR125     -0.2717
     14  CB         0.3100  -17.5010  102.7730 C.3   125  THR125      0.1784
     15  OG1        0.0410  -18.5530  101.8380 O.3   125  THR125     -0.2211
     16  CG2        0.6150  -16.2100  102.0300 C.3   125  THR125      0.0376
     17  N         -0.0620  -19.5360  104.5910 N.am  126  TYR126     -0.1961
     18  CA        -0.4450  -20.8230  105.1680 C.3   126  TYR126      0.1771
     19  C         -0.8300  -21.8770  104.1220 C.2   126  TYR126      0.2619
     20  O         -1.0130  -23.0440  104.4680 O.2   126  TYR126     -0.2715
     21  CB        -1.6110  -20.6160  106.1350 C.3   126  TYR126      0.0574
     22  CG        -2.6830  -19.7120  105.5670 C.ar  126  TYR126     -0.0198
     23  CD1       -3.4280  -20.0980  104.4580 C.ar  126  TYR126     -0.0009
     24  CD2       -2.8950  -18.4410  106.0920 C.ar  126  TYR126     -0.0009
     25  CE1       -4.3460  -19.2430  103.8800 C.ar  126  TYR126      0.0417
     26  CE2       -3.8140  -17.5750  105.5200 C.ar  126  TYR126      0.0417
     27  CZ        -4.5290  -17.9800  104.4140 C.ar  126  TYR126      0.1957
     28  OH        -5.3910  -17.1070  103.8070 O.3   126  TYR126     -0.2866
     29  N         -0.9360  -21.4770  102.8530 N.am  127  ARG127     -0.1977
     30  CA        -1.3310  -22.4060  101.7820 C.3   127  ARG127      0.1597
     31  C         -0.2670  -22.8850  100.7990 C.2   127  ARG127      0.2287
     32  O         -0.6010  -23.3030   99.6960 O.2   127  ARG127     -0.2864
     33  CB        -2.4760  -21.8170  100.9540 C.3   127  ARG127      0.0334
     34  CG        -3.8480  -22.3180  101.3290 C.3   127  ARG127      0.0492
     35  CD        -4.8650  -21.9530  100.2650 C.3   127  ARG127      0.2205
     36  NE        -6.2170  -22.3370  100.6540 N.pl3 127  ARG127     -0.0865
     37  CZ        -6.9410  -21.7120  101.5760 C.cat 127  ARG127      0.5346
     38  NH1       -6.4530  -20.6590  102.2140 N.pl3 127  ARG127      0.1354
     39  NH2       -8.1570  -22.1460  101.8620 N.pl3 127  ARG127      0.1354
     40  N          0.3160  -15.7100  111.4370 N.3   172  GLY172     -0.1210
     41  CA        -1.1100  -15.6010  111.1680 C.3   172  GLY172      0.1956
     42  C         -1.4790  -14.2450  110.5860 C.2   172  GLY172      0.2612
     43  O         -2.5370  -14.0820  109.9740 O.2   172  GLY172     -0.2717
     44  N         -0.5980  -13.2670  110.7690 N.am  173  ASN173     -0.1960
     45  CA        -0.8330  -11.9170  110.2650 C.3   173  ASN173      0.1819
     46  C         -0.5770  -11.9030  108.7680 C.2   173  ASN173      0.2621
     47  O          0.5300  -12.1880  108.3160 O.2   173  ASN173     -0.2715
     48  CB         0.0980  -10.9280  110.9730 C.3   173  ASN173      0.1195
     49  CG         0.1350  -11.1450  112.4740 C.2   173  ASN173      0.2630
     50  OD1        0.8050  -12.0550  112.9680 O.2   173  ASN173     -0.2716
     51  ND2       -0.6020  -10.3220  113.2070 N.am  173  ASN173     -0.0877
     52  N         -1.6070  -11.5740  107.9990 N.am  174  LEU174     -0.1977
     53  CA        -1.4910  -11.5590  106.5500 C.3   174  LEU174      0.1596
     54  C         -0.5490  -10.5050  105.9860 C.2   174  LEU174      0.2287
     55  O         -0.3660   -9.4350  106.5680 O.2   174  LEU174     -0.2864
     56  CB        -2.8690  -11.3750  105.9230 C.3   174  LEU174      0.0297
     57  CG        -3.8670  -12.5060  106.1220 C.3   174  LEU174      0.0022
     58  CD1       -5.2100  -12.0740  105.5630 C.3   174  LEU174      0.0001
     59  CD2       -3.3630  -13.7630  105.4310 C.3   174  LEU174      0.0001
     60  N         -1.8750  -14.0770   98.9660 N.3   201  GLY201     -0.1210
     61  CA        -3.0900  -14.3730   98.2240 C.3   201  GLY201      0.1956
     62  C         -3.7690  -13.1140   97.7040 C.2   201  GLY201      0.2612
     63  O         -3.3950  -12.0040   98.0870 O.2   201  GLY201     -0.2717
     64  N         -4.7660  -13.2690   96.8340 N.am  202  ASP202     -0.1959
     65  CA        -5.4600  -12.1050   96.2770 C.3   202  ASP202      0.1840
     66  C         -6.0270  -11.2070   97.3550 C.2   202  ASP202      0.2623
     67  O         -5.9140   -9.9890   97.2730 O.2   202  ASP202     -0.2715
     68  CB        -6.6020  -12.5310   95.3520 C.3   202  ASP202      0.1450
     69  CG        -7.5910  -13.4470   96.0390 C.2   202  ASP202      0.3671
     70  OD1       -7.1880  -14.5670   96.3620 O.co2 202  ASP202     -0.2456
     71  OD2       -8.7550  -13.0570   96.2630 O.co2 202  ASP202     -0.2456
     72  N         -6.6420  -11.8110   98.3670 N.am  203  GLY203     -0.1940
     73  CA        -7.2330  -11.0270   99.4370 C.3   203  GLY203      0.2014
     74  C         -6.2510  -10.1460  100.1810 C.2   203  GLY203      0.2638
     75  O         -6.4870   -8.9570  100.3970 O.2   203  GLY203     -0.2714
     76  N         -5.1350  -10.7390  100.5720 N.am  204  ALA204     -0.1977
     77  CA        -4.1180  -10.0290  101.3170 C.3   204  ALA204      0.1597
     78  C         -3.4380   -8.9100  100.5420 C.2   204  ALA204      0.2287
     79  O         -2.7960   -8.0690  101.1580 O.2   204  ALA204     -0.2864
     80  CB        -3.0670  -11.0260  101.8370 C.3   204  ALA204      0.0319
     81  N         -3.6980   -5.5940  101.7430 N.3   207  GLU207     -0.1245
     82  CA        -3.0070   -5.3130  102.9970 C.3   207  GLU207      0.1567
     83  C         -1.8430   -4.3720  102.7110 C.2   207  GLU207      0.2260
     84  O         -1.1700   -4.4860  101.6840 O.2   207  GLU207     -0.2867
     85  CB        -2.5080   -6.6130  103.6320 C.3   207  GLU207      0.0388
     86  CG        -2.2130   -6.5060  105.1130 C.3   207  GLU207      0.1160
     87  CD        -3.4190   -6.0550  105.9260 C.2   207  GLU207      0.3649
     88  OE1       -4.4260   -6.7900  105.9890 O.co2 207  GLU207     -0.2457
     89  OE2       -3.3560   -4.9550  106.5030 O.co2 207  GLU207     -0.2457
     90  N         -1.0870  -15.3140   94.6400 N.3   229  VAL229     -0.1245
     91  CA        -1.9320  -16.4480   94.2880 C.3   229  VAL229      0.1561
     92  C         -3.3910  -16.0160   94.2650 C.2   229  VAL229      0.2260
     93  O         -4.0290  -15.8690   95.2970 O.2   229  VAL229     -0.2867
     94  CB        -1.7630  -17.6260   95.2870 C.3   229  VAL229      0.0252
     95  CG1       -2.7110  -18.7660   94.9100 C.3   229  VAL229      0.0019
     96  CG2       -0.3310  -18.1240   95.2710 C.3   229  VAL229      0.0019
     97  N         -6.7100  -17.1200   93.7910 N.3   231  ASN231     -0.1240
     98  CA        -7.5690  -18.2950   93.7270 C.3   231  ASN231      0.1653
     99  C         -9.0290  -17.8390   93.7070 C.2   231  ASN231      0.2266
    100  O         -9.9410  -18.6070   94.0040 O.2   231  ASN231     -0.2867
    101  CB        -7.2970  -19.2370   94.9170 C.3   231  ASN231      0.1155
    102  CG        -7.5260  -18.5700   96.2540 C.2   231  ASN231      0.2627
    103  OD1       -8.2370  -17.5670   96.3360 O.2   231  ASN231     -0.2716
    104  ND2       -6.9450  -19.1330   97.3190 N.am  231  ASN231     -0.0877
    105  N        -10.7390  -16.1460   95.6760 N.3   233  TRP233     -0.1227
    106  CA       -11.4000  -15.9100   96.9520 C.3   233  TRP233      0.1737
    107  C        -10.4660  -15.7060   98.1410 C.2   233  TRP233      0.2595
    108  O         -9.2990  -16.1050   98.1280 O.2   233  TRP233     -0.2718
    109  CB       -12.3410  -17.0910   97.2850 C.3   233  TRP233      0.0564
    110  CG       -13.4040  -17.3800   96.2490 C.ar  233  TRP233      0.0003
    111  CD1      -13.2560  -18.0990   95.1000 C.ar  233  TRP233      0.0946
    112  CD2      -14.7530  -16.8860   96.2410 C.ar  233  TRP233      0.0152
    113  NE1      -14.4240  -18.0800   94.3720 N.ar  233  TRP233     -0.2442
    114  CE2      -15.3570  -17.3410   95.0500 C.ar  233  TRP233      0.0810
    115  CE3      -15.5060  -16.1000   97.1220 C.ar  233  TRP233      0.0012
    116  CZ2      -16.6830  -17.0330   94.7170 C.ar  233  TRP233      0.0191
    117  CZ3      -16.8260  -15.7950   96.7900 C.ar  233  TRP233      0.0001
    118  CH2      -17.3980  -16.2600   95.5980 C.ar  233  TRP233      0.0015
    119  N        -11.0230  -15.0740   99.1680 N.am  234  ALA234     -0.1966
    120  CA       -10.3580  -14.8080  100.4340 C.3   234  ALA234      0.1728
    121  C        -11.5020  -15.0770  101.4120 C.2   234  ALA234      0.2616
    122  O        -12.3100  -14.1920  101.7080 O.2   234  ALA234     -0.2715
    123  CB        -9.9070  -13.3570  100.5120 C.3   234  ALA234      0.0334
    124  N        -11.5650  -16.3190  101.8870 N.am  235  ILE235     -0.1977
    125  CA       -12.6260  -16.7710  102.7740 C.3   235  ILE235      0.1596
    126  C        -13.9230  -16.6820  101.9690 C.2   235  ILE235      0.2287
    127  O        -14.1040  -17.4330  101.0110 O.2   235  ILE235     -0.2864
    128  CB       -12.7290  -15.9210  104.0530 C.3   235  ILE235      0.0276
    129  CG1      -11.4180  -15.9980  104.8350 C.3   235  ILE235      0.0022
    130  CG2      -13.8550  -16.4510  104.9340 C.3   235  ILE235      0.0022
    131  CD1      -11.5000  -15.4040  106.2450 C.3   235  ILE235      0.0001
    132  N         -9.4710  -21.7190   94.4570 N.3   297  ARG297     -0.1245
    133  CA        -9.4290  -22.4030   95.7500 C.3   297  ARG297      0.1563
    134  C        -10.5380  -23.4610   95.7280 C.2   297  ARG297      0.2260
    135  O        -11.6840  -23.1810   96.0670 O.2   297  ARG297     -0.2867
    136  CB        -9.6520  -21.3960   96.8930 C.3   297  ARG297      0.0307
    137  CG        -9.1470  -21.8610   98.2620 C.3   297  ARG297      0.0489
    138  CD        -9.8600  -21.1250   99.3900 C.3   297  ARG297      0.2205
    139  NE       -11.2990  -21.3950   99.3580 N.pl3 297  ARG297     -0.0865
    140  CZ       -12.2390  -20.5880   99.8500 C.cat 297  ARG297      0.5346
    141  NH1      -11.9130  -19.4360  100.4290 N.pl3 297  ARG297      0.1354
    142  NH2      -13.5180  -20.9280   99.7430 N.pl3 297  ARG297      0.1354
    143  N        -12.1270  -22.6990  102.8350 N.3   301  HIS301     -0.1241
    144  CA       -11.0460  -21.8030  103.2040 C.3   301  HIS301      0.1621
    145  C        -10.2220  -22.5340  104.2570 C.2   301  HIS301      0.2264
    146  O         -8.9970  -22.4450  104.2860 O.2   301  HIS301     -0.2867
    147  CB       -11.6120  -20.4940  103.7720 C.3   301  HIS301      0.0745
    148  CG       -10.5840  -19.6270  104.4300 C.ar  301  HIS301      0.0817
    149  ND1       -9.6140  -18.9510  103.7220 N.ar  301  HIS301     -0.2268
    150  CD2      -10.3570  -19.3490  105.7360 C.ar  301  HIS301      0.1154
    151  CE1       -8.8330  -18.2940  104.5620 C.ar  301  HIS301      0.1986
    152  NE2       -9.2620  -18.5190  105.7900 N.ar  301  HIS301     -0.2212
@<TRIPOS>BOND
     1    99    98    1
     2    99   100    2
     3    98    97    1
     4    98   101    1
     5     2     1    1
     6     2     3    1
     7     2     5    1
     8     3     4    2
     9    92    91    1
    10    92    93    2
    11    91    90    1
    12    91    94    1
    13   113   114   ar
    14   113   111   ar
    15   132   133    1
    16   116   114   ar
    17   116   118   ar
    18    95    94    1
    19   101   102    1
    20     6     5    1
    21     6     7    1
    22   114   112   ar
    23   111   110   ar
    24    96    94    1
    25    68    69    1
    26    68    65    1
    27   118   117   ar
    28   105   106    1
    29   134   133    1
    30   134   135    2
    31   133   136    1
    32    69    71   ar
    33    69    70   ar
    34   112   110   ar
    35   112   115   ar
    36   110   109    1
    37     7     9   ar
    38     7     8   ar
    39   102   103    2
    40   102   104   am
    41    65    64    1
    42    65    66    1
    43   117   115   ar
    44    64    62   am
    45   136   137    1
    46   106   109    1
    47   106   107    1
    48    67    66    2
    49    66    72   am
    50    62    63    2
    51    62    61    1
    52   108   107    2
    53   107   119   am
    54    61    60    1
    55   137   138    1
    56    72    73    1
    57   119   120    1
    58   139   138    1
    59   139   140    2
    60    73    74    1
    61    32    31    2
    62   142   140    1
    63   140   141    1
    64    74    75    2
    65    74    76   am
    66    35    36    1
    67    35    34    1
    68   120   123    1
    69   120   121    1
    70    78    79    2
    71    78    77    1
    72    76    77    1
    73    36    37    2
    74    31    30    1
    75    33    34    1
    76    33    30    1
    77   127   126    2
    78    77    80    1
    79   121   122    2
    80   121   124   am
    81    37    39    1
    82    37    38    1
    83    84    83    2
    84    81    82    1
    85    30    29    1
    86    15    14    1
    87   124   125    1
    88   126   125    1
    89    16    14    1
    90    83    82    1
    91    14    11    1
    92   125   128    1
    93   143   144    1
    94    29    19   am
    95    10    11    1
    96    82    85    1
    97   144   147    1
    98   144   145    1
    99    85    86    1
   100    11    12    1
   101   149   148   ar
   102   149   151   ar
   103   147   148    1
   104    28    27    1
   105    25    27   ar
   106    25    23   ar
   107   128   129    1
   108   128   130    1
   109    19    20    2
   110    19    18    1
   111    12    13    2
   112    12    17   am
   113   145   146    2
   114    27    26   ar
   115   148   150   ar
   116    23    22   ar
   117   151   152   ar
   118    17    18    1
   119   129   131    1
   120    86    87    1
   121    18    21    1
   122    59    57    1
   123    26    24   ar
   124    58    57    1
   125    22    24   ar
   126    22    21    1
   127   150   152   ar
   128    56    57    1
   129    56    53    1
   130    87    88   ar
   131    87    89   ar
   132    54    53    1
   133    54    55    2
   134    53    52    1
   135    52    46   am
   136    47    46    2
   137    46    45    1
   138    43    42    2
   139    45    44    1
   140    45    48    1
   141    42    44   am
   142    42    41    1
   143    48    49    1
   144    41    40    1
   145    49    50    2
   146    49    51   am
