@<TRIPOS>MOLECULE
tmp/1qs2A00.pdb
 221 215 0 0 0
SMALL
GASTEIGER

@<TRIPOS>ATOM
      1  N         23.7120   -8.8810   54.7810 N.3   241  TYR241     -0.1227
      2  CA        24.2220   -7.5140   54.7980 C.3   241  TYR241      0.1736
      3  C         23.5550   -6.7120   55.9110 C.2   241  TYR241      0.2595
      4  O         24.2180   -6.1760   56.8010 O.2   241  TYR241     -0.2718
      5  CB        23.9350   -6.8200   53.4660 C.3   241  TYR241      0.0548
      6  CG        24.4830   -5.4190   53.4150 C.ar  241  TYR241     -0.0200
      7  CD1       25.8360   -5.1930   53.1810 C.ar  241  TYR241     -0.0009
      8  CD2       23.6640   -4.3210   53.6730 C.ar  241  TYR241     -0.0009
      9  CE1       26.3630   -3.9040   53.2060 C.ar  241  TYR241      0.0417
     10  CE2       24.1770   -3.0320   53.7020 C.ar  241  TYR241      0.0417
     11  CZ        25.5260   -2.8300   53.4700 C.ar  241  TYR241      0.1957
     12  OH        26.0500   -1.5610   53.5160 O.3   241  TYR241     -0.2866
     13  N         22.2300   -6.6380   55.8310 N.am  242  ALA242     -0.1980
     14  CA        21.4160   -5.9090   56.7890 C.3   242  ALA242      0.1597
     15  C         21.5870   -6.4000   58.2160 C.2   242  ALA242      0.2287
     16  O         21.6770   -5.5990   59.1440 O.2   242  ALA242     -0.2864
     17  CB        19.9570   -6.0040   56.3870 C.3   242  ALA242      0.0319
     18  N         27.1830   -6.1370   56.8750 N.3   246  TYR246     -0.1241
     19  CA        27.5330   -4.8240   56.3530 C.3   246  TYR246      0.1605
     20  C         28.8500   -4.2670   56.9110 C.2   246  TYR246      0.2264
     21  O         29.6140   -3.6450   56.1770 O.2   246  TYR246     -0.2867
     22  CB        26.3750   -3.8430   56.5880 C.3   246  TYR246      0.0534
     23  CG        26.1940   -3.3700   58.0080 C.ar  246  TYR246     -0.0201
     24  CD1       26.9760   -2.3340   58.5220 C.ar  246  TYR246     -0.0009
     25  CD2       25.2310   -3.9450   58.8400 C.ar  246  TYR246     -0.0009
     26  CE1       26.8030   -1.8770   59.8270 C.ar  246  TYR246      0.0417
     27  CE2       25.0520   -3.4940   60.1520 C.ar  246  TYR246      0.0417
     28  CZ        25.8430   -2.4600   60.6360 C.ar  246  TYR246      0.1957
     29  OH        25.6890   -2.0250   61.9320 O.3   246  TYR246     -0.2866
     30  N         31.5090   -3.4900   54.2020 N.3   250  ASN250     -0.1240
     31  CA        31.9110   -2.1150   53.9250 C.3   250  ASN250      0.1653
     32  C         33.3980   -1.9040   54.1660 C.2   250  ASN250      0.2266
     33  O         34.0800   -1.2570   53.3620 O.2   250  ASN250     -0.2867
     34  CB        31.1060   -1.1030   54.7560 C.3   250  ASN250      0.1155
     35  CG        29.7350   -0.8090   54.1580 C.2   250  ASN250      0.2627
     36  OD1       29.6170   -0.5130   52.9720 O.2   250  ASN250     -0.2716
     37  ND2       28.6990   -0.8680   54.9850 N.am  250  ASN250     -0.0877
     38  N         35.8840   -0.4080   51.6230 N.3   254  ARG254     -0.1231
     39  CA        36.4460    0.9050   51.9030 C.3   254  ARG254      0.1694
     40  C         37.9240    0.9490   52.2320 C.2   254  ARG254      0.2592
     41  O         38.6040    1.9130   51.8880 O.2   254  ARG254     -0.2718
     42  CB        35.6890    1.5600   53.0570 C.3   254  ARG254      0.0321
     43  CG        34.3100    2.0370   52.6960 C.3   254  ARG254      0.0489
     44  CD        33.4940    2.3370   53.9250 C.3   254  ARG254      0.2205
     45  NE        32.1900    2.8590   53.5470 N.pl3 254  ARG254     -0.0865
     46  CZ        31.1220    2.8380   54.3330 C.cat 254  ARG254      0.5346
     47  NH1       31.2180    2.3160   55.5420 N.pl3 254  ARG254      0.1354
     48  NH2       29.9590    3.3240   53.9060 N.pl3 254  ARG254      0.1354
     49  N         38.4290   -0.0940   52.8800 N.am  255  ASN255     -0.1974
     50  CA        39.8180   -0.0930   53.3150 C.3   255  ASN255      0.1688
     51  C         40.7430   -1.1820   52.7760 C.2   255  ASN255      0.2292
     52  O         41.9680   -1.0180   52.8000 O.2   255  ASN255     -0.2864
     53  CB        39.8360   -0.1290   54.8420 C.3   255  ASN255      0.1181
     54  CG        38.7820    0.7870   55.4550 C.2   255  ASN255      0.2629
     55  OD1       38.7700    1.9990   55.2160 O.2   255  ASN255     -0.2716
     56  ND2       37.8830    0.2030   56.2440 N.am  255  ASN255     -0.0877
     57  N         18.2650   10.8580   53.6330 N.3   287  TYR287     -0.1227
     58  CA        19.0610   11.4780   54.6740 C.3   287  TYR287      0.1736
     59  C         20.0090   10.5140   55.3220 C.2   287  TYR287      0.2595
     60  O         19.8710    9.3040   55.2000 O.2   287  TYR287     -0.2718
     61  CB        18.1760   12.0950   55.7450 C.3   287  TYR287      0.0548
     62  CG        17.2540   13.1430   55.2160 C.ar  287  TYR287     -0.0200
     63  CD1       16.0330   12.8000   54.6390 C.ar  287  TYR287     -0.0009
     64  CD2       17.6100   14.4870   55.2680 C.ar  287  TYR287     -0.0009
     65  CE1       15.1890   13.7820   54.1330 C.ar  287  TYR287      0.0417
     66  CE2       16.7810   15.4700   54.7670 C.ar  287  TYR287      0.0417
     67  CZ        15.5740   15.1170   54.2060 C.ar  287  TYR287      0.1957
     68  OH        14.7390   16.1020   53.7530 O.3   287  TYR287     -0.2866
     69  N         20.9580   11.0710   56.0560 N.am  288  ARG288     -0.1966
     70  CA        21.9650   10.2640   56.6910 C.3   288  ARG288      0.1729
     71  C         22.6760   11.1160   57.7300 C.2   288  ARG288      0.2616
     72  O         23.1520   12.2060   57.4080 O.2   288  ARG288     -0.2715
     73  CB        22.9390    9.8300   55.6010 C.3   288  ARG288      0.0348
     74  CG        23.9670    8.8320   55.9990 C.3   288  ARG288      0.0492
     75  CD        24.8240    8.4760   54.8020 C.3   288  ARG288      0.2205
     76  NE        25.6720    7.3320   55.0950 N.pl3 288  ARG288     -0.0865
     77  CZ        26.5690    7.3040   56.0720 C.cat 288  ARG288      0.5346
     78  NH1       26.7320    8.3620   56.8500 N.pl3 288  ARG288      0.1354
     79  NH2       27.2970    6.2150   56.2750 N.pl3 288  ARG288      0.1354
     80  N         22.7170   10.6500   58.9780 N.am  289  TRP289     -0.1974
     81  CA        23.4340   11.3660   60.0290 C.3   289  TRP289      0.1640
     82  C         24.8550   10.8170   60.0070 C.2   289  TRP289      0.2290
     83  O         25.0600    9.6170   60.1570 O.2   289  TRP289     -0.2864
     84  CB        22.7700   11.1420   61.3820 C.3   289  TRP289      0.0576
     85  CG        21.4140   11.7610   61.4320 C.ar  289  TRP289      0.0006
     86  CD1       20.3250   11.3950   60.7050 C.ar  289  TRP289      0.0946
     87  CD2       21.0100   12.8960   62.2110 C.ar  289  TRP289      0.0152
     88  NE1       19.2690   12.2270   60.9790 N.ar  289  TRP289     -0.2442
     89  CE2       19.6660   13.1570   61.9010 C.ar  289  TRP289      0.0810
     90  CE3       21.6580   13.7150   63.1400 C.ar  289  TRP289      0.0012
     91  CZ2       18.9540   14.2020   62.4870 C.ar  289  TRP289      0.0191
     92  CZ3       20.9470   14.7560   63.7250 C.ar  289  TRP289      0.0001
     93  CH2       19.6110   14.9880   63.3950 C.ar  289  TRP289      0.0015
     94  N         29.1050   10.5830   61.0590 N.3   291  GLY291     -0.1225
     95  CA        30.0730   10.7130   62.1320 C.3   291  GLY291      0.1811
     96  C         31.2760   11.4590   61.5770 C.2   291  GLY291      0.2280
     97  O         31.6250   11.2820   60.4090 O.2   291  GLY291     -0.2866
     98  N         34.4290   11.1030   61.4000 N.3   293  PRO293     -0.2102
     99  CA        35.4070   10.3910   60.5810 C.3   293  PRO293      0.1504
    100  C         34.9570   10.2670   59.1280 C.2   293  PRO293      0.2575
    101  O         35.7830   10.2230   58.2150 O.2   293  PRO293     -0.2718
    102  CB        35.5020    9.0360   61.2830 C.3   293  PRO293      0.0282
    103  CG        35.2020    9.4070   62.7340 C.3   293  PRO293      0.0208
    104  CD        33.9730   10.2400   62.5010 C.3   293  PRO293      0.0893
    105  N         33.6480   10.2120   58.9080 N.am  294  GLU294     -0.1980
    106  CA        33.1260   10.0820   57.5500 C.3   294  GLU294      0.1602
    107  C         33.5180   11.2770   56.6930 C.2   294  GLU294      0.2287
    108  O         33.5520   11.1770   55.4680 O.2   294  GLU294     -0.2864
    109  CB        31.5980    9.9360   57.5670 C.3   294  GLU294      0.0415
    110  CG        30.9620    9.7360   56.1840 C.3   294  GLU294      0.1163
    111  CD        29.4560    9.4780   56.2520 C.2   294  GLU294      0.3649
    112  OE1       28.9030    9.4200   57.3720 O.co2 294  GLU294     -0.2457
    113  OE2       28.8250    9.3290   55.1820 O.co2 294  GLU294     -0.2457
    114  N         32.3240   13.5750   46.8450 N.3   318  LYS318     -0.1231
    115  CA        32.6980   12.6010   47.8500 C.3   318  LYS318      0.1693
    116  C         32.2960   11.2150   47.3510 C.2   318  LYS318      0.2592
    117  O         31.2180   11.0280   46.7810 O.2   318  LYS318     -0.2718
    118  CB        32.0080   12.9460   49.1750 C.3   318  LYS318      0.0285
    119  CG        32.5260   12.1930   50.3840 C.3   318  LYS318      0.0035
    120  CD        32.0830   12.8780   51.6710 C.3   318  LYS318      0.0206
    121  CE        32.6260   12.1710   52.8920 C.3   318  LYS318      0.1093
    122  NZ        32.1070   10.7870   52.9440 N.3   318  LYS318     -0.1314
    123  N         33.1750   10.2460   47.5570 N.am  319  GLU319     -0.1966
    124  CA        32.9140    8.8900   47.1090 C.3   319  GLU319      0.1733
    125  C         32.8230    7.9060   48.2600 C.2   319  GLU319      0.2616
    126  O         33.2070    8.1990   49.3900 O.2   319  GLU319     -0.2715
    127  CB        34.0220    8.4390   46.1560 C.3   319  GLU319      0.0429
    128  CG        34.1860    9.3420   44.9400 C.3   319  GLU319      0.1163
    129  CD        35.2960    8.8890   44.0040 C.2   319  GLU319      0.3649
    130  OE1       35.9500    7.8650   44.3000 O.co2 319  GLU319     -0.2457
    131  OE2       35.5130    9.5580   42.9710 O.co2 319  GLU319     -0.2457
    132  N         32.2900    6.7340   47.9610 N.am  320  ASP320     -0.1957
    133  CA        32.1920    5.6800   48.9490 C.3   320  ASP320      0.1840
    134  C         32.3310    4.3370   48.2500 C.2   320  ASP320      0.2621
    135  O         31.5030    3.9710   47.4120 O.2   320  ASP320     -0.2715
    136  CB        30.8660    5.7510   49.6990 C.3   320  ASP320      0.1450
    137  CG        30.7400    4.6630   50.7430 C.2   320  ASP320      0.3671
    138  OD1       31.7760    4.0550   51.0830 O.co2 320  ASP320     -0.2456
    139  OD2       29.6180    4.4280   51.2370 O.co2 320  ASP320     -0.2456
    140  N         33.3960    3.6150   48.5770 N.am  321  LYS321     -0.1977
    141  CA        33.6090    2.3180   47.9710 C.3   321  LYS321      0.1596
    142  C         32.6290    1.3170   48.5460 C.2   321  LYS321      0.2287
    143  O         32.2500    0.3590   47.8730 O.2   321  LYS321     -0.2864
    144  CB        35.0420    1.8470   48.1870 C.3   321  LYS321      0.0298
    145  CG        36.0630    2.6200   47.3820 C.3   321  LYS321      0.0038
    146  CD        37.4150    1.9580   47.4810 C.3   321  LYS321      0.0206
    147  CE        38.4300    2.6350   46.5880 C.3   321  LYS321      0.1093
    148  NZ        38.5610    4.0590   46.9680 N.3   321  LYS321     -0.1314
    149  N         26.3160    2.8340   50.6980 N.3   324  MET324     -0.1230
    150  CA        25.8290    3.9290   51.5120 C.3   324  MET324      0.1702
    151  C         24.3720    3.7330   51.9430 C.2   324  MET324      0.2593
    152  O         23.4700    3.6160   51.1090 O.2   324  MET324     -0.2718
    153  CB        25.9890    5.2420   50.7510 C.3   324  MET324      0.0401
    154  CG        25.3650    6.4320   51.4450 C.3   324  MET324      0.0596
    155  SD        25.7000    7.9510   50.5700 S.3   324  MET324     -0.1393
    156  CE        27.4560    8.0440   50.8060 C.3   324  MET324      0.0692
    157  N         24.1540    3.6910   53.2560 N.am  325  SER325     -0.1938
    158  CA        22.8140    3.5230   53.8140 C.3   325  SER325      0.2055
    159  C         22.2370    4.8970   54.0610 C.2   325  SER325      0.2644
    160  O         22.8820    5.7480   54.6780 O.2   325  SER325     -0.2714
    161  CB        22.8680    2.7820   55.1460 C.3   325  SER325      0.2130
    162  OG        23.5580    1.5540   55.0200 O.3   325  SER325     -0.2179
    163  N         21.0210    5.1210   53.5840 N.am  326  THR326     -0.1936
    164  CA        20.3860    6.4110   53.7840 C.3   326  THR326      0.2028
    165  C         18.9710    6.1410   54.2240 C.2   326  THR326      0.2642
    166  O         18.5490    4.9850   54.2620 O.2   326  THR326     -0.2714
    167  CB        20.3580    7.2390   52.4840 C.3   326  THR326      0.1808
    168  OG1       19.4670    6.6310   51.5470 O.3   326  THR326     -0.2208
    169  CG2       21.7620    7.3180   51.8700 C.3   326  THR326      0.0379
    170  N         18.2340    7.1980   54.5540 N.am  327  SER327     -0.1949
    171  CA        16.8460    7.0490   54.9880 C.3   327  SER327      0.1924
    172  C         15.8940    8.0390   54.3420 C.2   327  SER327      0.2314
    173  O         16.2770    9.1730   54.0460 O.2   327  SER327     -0.2863
    174  CB        16.7340    7.2060   56.5050 C.3   327  SER327      0.2116
    175  OG        15.3790    7.0970   56.9060 O.3   327  SER327     -0.2180
    176  N         22.0950    7.5040   66.6340 N.3   336  PHE336     -0.1241
    177  CA        23.0450    8.5260   66.2150 C.3   336  PHE336      0.1605
    178  C         22.4870    9.9410   66.2690 C.2   336  PHE336      0.2264
    179  O         22.8120   10.7840   65.4340 O.2   336  PHE336     -0.2867
    180  CB        23.5870    8.2110   64.8090 C.3   336  PHE336      0.0534
    181  CG        22.7040    7.3070   63.9970 C.ar  336  PHE336     -0.0203
    182  CD1       21.3980    7.6750   63.6850 C.ar  336  PHE336     -0.0042
    183  CD2       23.1760    6.0650   63.5710 C.ar  336  PHE336     -0.0042
    184  CE1       20.5700    6.8180   62.9640 C.ar  336  PHE336     -0.0003
    185  CE2       22.3600    5.2010   62.8530 C.ar  336  PHE336     -0.0003
    186  CZ        21.0510    5.5760   62.5480 C.ar  336  PHE336     -0.0000
    187  N         25.1570   13.0030   65.9920 N.3   339  ARG339     -0.1245
    188  CA        26.0950   13.2350   64.8950 C.3   339  ARG339      0.1563
    189  C         25.9640   14.7300   64.5880 C.2   339  ARG339      0.2260
    190  O         24.9020   15.3000   64.7850 O.2   339  ARG339     -0.2867
    191  CB        25.7050   12.4240   63.6600 C.3   339  ARG339      0.0307
    192  CG        25.6890   10.9040   63.8260 C.3   339  ARG339      0.0489
    193  CD        27.0590   10.3390   64.1330 C.3   339  ARG339      0.2205
    194  NE        27.1010    8.8710   64.1360 N.pl3 339  ARG339     -0.0865
    195  CZ        26.9480    8.1060   63.0570 C.cat 339  ARG339      0.5346
    196  NH1       26.7390    8.6630   61.8770 N.pl3 339  ARG339      0.1354
    197  NH2       27.0360    6.7840   63.1530 N.pl3 339  ARG339      0.1354
    198  N         16.3670   -2.8950   57.9040 N.3   364  SER364     -0.1202
    199  CA        16.2900   -1.7110   58.7410 C.3   364  SER364      0.2020
    200  C         14.9970   -0.9490   58.4820 C.2   364  SER364      0.2618
    201  O         14.0720   -1.4760   57.8670 O.2   364  SER364     -0.2717
    202  CB        17.5020   -0.8140   58.4850 C.3   364  SER364      0.2103
    203  OG        17.5260    0.2930   59.3720 O.3   364  SER364     -0.2182
    204  N         14.9500    0.2980   58.9430 N.am  365  GLU365     -0.1979
    205  CA        13.7670    1.1510   58.8090 C.3   365  GLU365      0.1602
    206  C         13.8130    2.2700   57.7710 C.2   365  GLU365      0.2287
    207  O         14.6540    3.1710   57.8480 O.2   365  GLU365     -0.2864
    208  CB        13.4410    1.7780   60.1680 C.3   365  GLU365      0.0415
    209  CG        13.0560    0.7780   61.2310 C.3   365  GLU365      0.1163
    210  CD        11.8140    0.0150   60.8480 C.2   365  GLU365      0.3649
    211  OE1       11.8250   -0.6520   59.7880 O.co2 365  GLU365     -0.2457
    212  OE2       10.8250    0.0900   61.6050 O.co2 365  GLU365     -0.2457
    213  N         14.8810    2.4240   54.8580 N.3   367  GLU367     -0.1245
    214  CA        16.2070    2.5130   54.2610 C.3   367  GLU367      0.1567
    215  C         16.3250    2.3670   52.7390 C.2   367  GLU367      0.2260
    216  O         15.7790    1.4370   52.1300 O.2   367  GLU367     -0.2867
    217  CB        17.1240    1.4830   54.9250 C.3   367  GLU367      0.0388
    218  CG        18.5500    1.4690   54.4010 C.3   367  GLU367      0.1160
    219  CD        19.4500    0.5100   55.1790 C.2   367  GLU367      0.3649
    220  OE1       18.9300   -0.2320   56.0360 O.co2 367  GLU367     -0.2457
    221  OE2       20.6790    0.4910   54.9400 O.co2 367  GLU367     -0.2457
@<TRIPOS>BOND
     1   131   129   ar
     2   129   130   ar
     3   129   128    1
     4   128   127    1
     5   127   124    1
     6   147   148    1
     7   147   146    1
     8   117   116    2
     9   114   115    1
    10   124   123    1
    11   124   125    1
    12   116   123   am
    13   116   115    1
    14   145   146    1
    15   145   144    1
    16   135   134    2
    17   115   118    1
    18   143   142    2
    19   132   125   am
    20   132   133    1
    21   141   144    1
    22   141   142    1
    23   141   140    1
    24   134   140   am
    25   134   133    1
    26   125   126    2
    27   133   136    1
    28   118   119    1
    29   136   137    1
    30   119   120    1
    31   155   156    1
    32   155   154    1
    33   149   150    1
    34   137   138   ar
    35   137   139   ar
    36   153   154    1
    37   153   150    1
    38   152   151    2
    39   150   151    1
    40   168   167    1
    41    38    39    1
    42   120   121    1
    43   169   167    1
    44    41    40    2
    45    39    40    1
    46    39    42    1
    47   151   157   am
    48   216   215    2
    49    40    49   am
    50   167   164    1
    51    43    42    1
    52    43    44    1
    53   215   214    1
    54    51    52    2
    55    51    50    1
    56    49    50    1
    57   121   122    1
    58    36    35    2
    59     7     9   ar
    60     7     6   ar
    61     9    11   ar
    62   157   158    1
    63    50    53    1
    64    33    32    2
    65     6     5    1
    66     6     8   ar
    67     5     2    1
    68    11    12    1
    69    11    10   ar
    70    45    44    1
    71    45    46    2
    72   163   164    1
    73   163   159   am
    74    57    58    1
    75     8    10   ar
    76    68    67    1
    77   164   165    1
    78   158   159    1
    79   158   161    1
    80    48    46    1
    81    31    32    1
    82    31    30    1
    83    31    34    1
    84   173   172    2
    85   159   160    2
    86    65    67   ar
    87    65    63   ar
    88    35    34    1
    89    35    37   am
    90    67    66   ar
    91   165   166    2
    92   165   170   am
    93   214   213    1
    94   214   217    1
    95    46    47    1
    96   172   171    1
    97   218   217    1
    98   218   219    1
    99   170   171    1
   100    63    62   ar
   101    58    59    1
   102    58    61    1
   103    66    64   ar
   104     1     2    1
   105     2     3    1
   106    75    76    1
   107    75    74    1
   108    53    54    1
   109   221   219   ar
   110   171   174    1
   111   162   161    1
   112    76    77    2
   113   219   220   ar
   114   113   111   ar
   115    60    59    2
   116    55    54    2
   117    62    64   ar
   118    62    61    1
   119    59    69   am
   120    54    56   am
   121   108   107    2
   122    73    74    1
   123    73    70    1
   124    13     3   am
   125    13    14    1
   126     3     4    2
   127    69    70    1
   128    77    79    1
   129    77    78    1
   130    21    20    2
   131   110   111    1
   132   110   109    1
   133   111   112   ar
   134    19    22    1
   135    19    18    1
   136    19    20    1
   137    17    14    1
   138   174   175    1
   139    22    23    1
   140    70    71    1
   141   107   106    1
   142    14    15    1
   143    72    71    2
   144   106   109    1
   145   106   105    1
   146    71    80   am
   147   206   207    2
   148   206   205    1
   149   201   200    2
   150   198   199    1
   151    23    24   ar
   152    23    25   ar
   153   101   100    2
   154    15    16    2
   155   200   199    1
   156   200   204   am
   157   202   199    1
   158   202   203    1
   159    24    26   ar
   160   205   204    1
   161   205   208    1
   162    25    27   ar
   163   105   100   am
   164    80    81    1
   165   100    99    1
   166   211   210   ar
   167    26    28   ar
   168    82    81    1
   169    82    83    2
   170    81    84    1
   171    27    28   ar
   172   208   209    1
   173    97    96    2
   174    99   102    1
   175    99    98    1
   176    28    29    1
   177    86    88   ar
   178    86    85   ar
   179   210   209    1
   180   210   212   ar
   181    88    89   ar
   182    94    95    1
   183   102   103    1
   184    84    85    1
   185    98   104    1
   186    85    87   ar
   187    96    95    1
   188   196   195    1
   189    89    87   ar
   190    89    91   ar
   191    87    90   ar
   192    91    93   ar
   193   104   103    1
   194   186   185   ar
   195   186   184   ar
   196   185   183   ar
   197   184   182   ar
   198   195   197    1
   199   195   194    2
   200    90    92   ar
   201    93    92   ar
   202   183   181   ar
   203   191   192    1
   204   191   188    1
   205   182   181   ar
   206   192   193    1
   207   181   180    1
   208   193   194    1
   209   189   190    2
   210   189   188    1
   211   180   177    1
   212   188   187    1
   213   179   178    2
   214   177   178    1
   215   177   176    1
