@<TRIPOS>MOLECULE
tmp/1qs4A00.pdb
 91 86 0 0 0
SMALL
GASTEIGER

@<TRIPOS>ATOM
      1  N        -15.3240   24.2120   59.3300 N.3     9  ASP9       -0.1225
      2  CA       -16.3540   24.3990   60.3420 C.3     9  ASP9        0.1805
      3  C        -17.7070   24.5750   59.6600 C.2     9  ASP9        0.2598
      4  O        -17.7710   24.8400   58.4580 O.2     9  ASP9       -0.2718
      5  CB       -16.0240   25.6280   61.1940 C.3     9  ASP9        0.1424
      6  CG       -16.8180   25.6760   62.4800 C.2     9  ASP9        0.3668
      7  OD1      -17.0980   24.5960   63.0280 O.co2   9  ASP9       -0.2456
      8  OD2      -17.1490   26.7770   62.9520 O.co2   9  ASP9       -0.2456
      9  N        -18.7810   24.4190   60.4290 N.am   10  CYS10      -0.1956
     10  CA       -20.1240   24.5710   59.8910 C.3    10  CYS10       0.1843
     11  C        -20.8530   25.7700   60.4740 C.2    10  CYS10       0.2626
     12  O        -20.6980   26.1050   61.6460 O.2    10  CYS10      -0.2714
     13  CB       -20.9750   23.3230   60.1630 C.3    10  CYS10       0.0997
     14  SG       -20.5410   21.8310   59.2340 S.3    10  CYS10      -0.0797
     15  N        -21.6360   26.4320   59.6340 N.am   11  THR11      -0.1936
     16  CA       -22.4440   27.5520   60.0720 C.3    11  THR11       0.2028
     17  C        -23.8400   27.1910   59.5750 C.2    11  THR11       0.2642
     18  O        -24.0210   26.1460   58.9480 O.2    11  THR11      -0.2714
     19  CB       -21.9740   28.8880   59.4790 C.3    11  THR11       0.1808
     20  OG1      -22.7110   29.9560   60.0930 O.3    11  THR11      -0.2208
     21  CG2      -22.1860   28.9240   57.9740 C.3    11  THR11       0.0379
     22  N        -24.8280   28.0300   59.8550 N.am   12  HIS12      -0.1973
     23  CA       -26.1920   27.7120   59.4540 C.3    12  HIS12       0.1656
     24  C        -26.9860   28.9430   59.0390 C.2    12  HIS12       0.2291
     25  O        -26.7590   30.0420   59.5330 O.2    12  HIS12      -0.2864
     26  CB       -26.9060   27.0230   60.6160 C.3    12  HIS12       0.0771
     27  CG       -26.1070   25.9200   61.2370 C.ar   12  HIS12       0.0820
     28  ND1      -26.2820   24.5950   60.9080 N.ar   12  HIS12      -0.2267
     29  CD2      -25.0820   25.9570   62.1220 C.ar   12  HIS12       0.1154
     30  CE1      -25.3960   23.8610   61.5610 C.ar   12  HIS12       0.1986
     31  NE2      -24.6560   24.6640   62.3020 N.ar   12  HIS12      -0.2212
     32  N        -13.2260   21.7080   65.2150 N.3    61  ASP61      -0.1239
     33  CA       -13.6330   21.5410   66.5990 C.3    61  ASP61       0.1674
     34  C        -14.0070   20.0710   66.7350 C.2    61  ASP61       0.2266
     35  O        -13.8330   19.3000   65.7870 O.2    61  ASP61      -0.2867
     36  CB       -14.8130   22.4560   66.9400 C.3    61  ASP61       0.1410
     37  CG       -15.9910   22.2790   66.0030 C.2    61  ASP61       0.3668
     38  OD1      -16.5750   23.3110   65.6270 O.co2  61  ASP61      -0.2456
     39  OD2      -16.3460   21.1300   65.6550 O.co2  61  ASP61      -0.2456
     40  N         -8.2910   30.3620   65.0330 N.3    89  GLN89      -0.1245
     41  CA        -9.4800   29.7340   65.6100 C.3    89  GLN89       0.1566
     42  C        -10.6620   30.7000   65.6170 C.2    89  GLN89       0.2260
     43  O        -11.8160   30.2890   65.5140 O.2    89  GLN89      -0.2867
     44  CB        -9.1990   29.2410   67.0320 C.3    89  GLN89       0.0367
     45  CG       -10.2190   28.2310   67.5340 C.3    89  GLN89       0.0905
     46  CD       -10.3370   27.0240   66.6190 C.2    89  GLN89       0.2608
     47  OE1       -9.3590   26.3140   66.3800 O.2    89  GLN89      -0.2717
     48  NE2      -11.5360   26.7890   66.1000 N.am   89  GLN89      -0.0878
     49  N        -11.8690   31.3630   61.8170 N.3    92  ILE92      -0.1231
     50  CA       -12.9710   30.5850   61.2800 C.3    92  ILE92       0.1692
     51  C        -14.2870   31.2330   61.7080 C.2    92  ILE92       0.2591
     52  O        -15.2610   31.2340   60.9590 O.2    92  ILE92      -0.2718
     53  CB       -12.9080   29.1200   61.7820 C.3    92  ILE92       0.0266
     54  CG1      -13.9630   28.2730   61.0710 C.3    92  ILE92       0.0019
     55  CG2      -13.1150   29.0700   63.2830 C.3    92  ILE92       0.0020
     56  CD1      -13.7010   28.0890   59.5950 C.3    92  ILE92       0.0001
     57  N        -14.3090   31.7980   62.9110 N.am   93  GLU93      -0.1979
     58  CA       -15.5110   32.4550   63.4070 C.3    93  GLU93       0.1602
     59  C        -15.7910   33.7100   62.5910 C.2    93  GLU93       0.2287
     60  O        -16.9350   33.9840   62.2340 O.2    93  GLU93      -0.2864
     61  CB       -15.3570   32.8340   64.8820 C.3    93  GLU93       0.0415
     62  CG       -16.5510   33.6050   65.4270 C.3    93  GLU93       0.1163
     63  CD       -16.4070   33.9710   66.8910 C.2    93  GLU93       0.3649
     64  OE1      -15.4300   34.6680   67.2410 O.co2  93  GLU93      -0.2457
     65  OE2      -17.2770   33.5660   67.6910 O.co2  93  GLU93      -0.2457
     66  N        -16.8750   32.6890   59.0160 N.3    96  ASN96      -0.1225
     67  CA       -18.2530   32.2120   59.0320 C.3    96  ASN96       0.1785
     68  C        -19.1760   33.4190   59.0390 C.2    96  ASN96       0.2597
     69  O        -20.1190   33.4980   58.2560 O.2    96  ASN96      -0.2718
     70  CB       -18.5460   31.3770   60.2820 C.3    96  ASN96       0.1169
     71  CG       -17.9080   30.0050   60.2440 C.2    96  ASN96       0.2627
     72  OD1      -17.4990   29.5220   59.1900 O.2    96  ASN96      -0.2716
     73  ND2      -17.8420   29.3560   61.4040 N.am   96  ASN96      -0.0877
     74  N        -18.8950   34.3600   59.9360 N.am   97  LYS97      -0.1980
     75  CA       -19.7100   35.5580   60.0520 C.3    97  LYS97       0.1596
     76  C        -19.6330   36.3960   58.7810 C.2    97  LYS97       0.2287
     77  O        -20.6530   36.8570   58.2740 O.2    97  LYS97      -0.2864
     78  CB       -19.2710   36.3830   61.2670 C.3    97  LYS97       0.0298
     79  CG       -19.4620   35.6640   62.6110 C.3    97  LYS97       0.0038
     80  CD       -19.0110   36.5400   63.7790 C.3    97  LYS97       0.0206
     81  CE       -19.0760   35.8080   65.1200 C.3    97  LYS97       0.1093
     82  NZ       -20.4580   35.3980   65.5120 N.3    97  LYS97      -0.1314
     83  N        -21.7330   34.8010   56.0790 N.3   100  LYS100     -0.1245
     84  CA       -23.1610   35.0000   56.2880 C.3   100  LYS100      0.1561
     85  C        -23.5470   36.4260   55.9210 C.2   100  LYS100      0.2260
     86  O        -24.6680   36.6820   55.4840 O.2   100  LYS100     -0.2867
     87  CB       -23.5580   34.6870   57.7380 C.3   100  LYS100      0.0271
     88  CG       -23.5630   33.1900   58.0370 C.3   100  LYS100      0.0035
     89  CD       -24.4090   32.8200   59.2430 C.3   100  LYS100      0.0206
     90  CE       -23.7450   33.2310   60.5430 C.3   100  LYS100      0.1093
     91  NZ       -24.5210   32.7620   61.7250 N.3   100  LYS100     -0.1314
@<TRIPOS>BOND
     1    86    85    2
     2    85    84    1
     3    83    84    1
     4    84    87    1
     5    87    88    1
     6    21    19    1
     7    88    89    1
     8    69    68    2
     9    77    76    2
    10     4     3    2
    11    76    75    1
    12    18    17    2
    13    66    67    1
    14    67    68    1
    15    67    70    1
    16    68    74   am
    17    24    23    1
    18    24    25    2
    19    72    71    2
    20    14    13    1
    21    89    90    1
    22     1     2    1
    23    23    22    1
    24    23    26    1
    25    19    16    1
    26    19    20    1
    27    17    22   am
    28    17    16    1
    29    56    54    1
    30    15    16    1
    31    15    11   am
    32     3     2    1
    33     3     9   am
    34    10    13    1
    35    10     9    1
    36    10    11    1
    37    74    75    1
    38    75    78    1
    39    71    70    1
    40    71    73   am
    41     2     5    1
    42    11    12    2
    43    90    91    1
    44    26    27    1
    45    28    27   ar
    46    28    30   ar
    47    52    51    2
    48    54    53    1
    49     5     6    1
    50    27    29   ar
    51    78    79    1
    52    50    51    1
    53    50    53    1
    54    50    49    1
    55    30    31   ar
    56    51    57   am
    57    53    55    1
    58    29    31   ar
    59    60    59    2
    60     6     8   ar
    61     6     7   ar
    62    59    58    1
    63    79    80    1
    64    57    58    1
    65    58    61    1
    66    80    81    1
    67    61    62    1
    68    40    41    1
    69    81    82    1
    70    32    33    1
    71    62    63    1
    72    43    42    2
    73    41    42    1
    74    41    44    1
    75    38    37   ar
    76    39    37   ar
    77    35    34    2
    78    37    36    1
    79    48    46   am
    80    47    46    2
    81    33    34    1
    82    33    36    1
    83    46    45    1
    84    63    64   ar
    85    63    65   ar
    86    44    45    1
