@<TRIPOS>MOLECULE
tmp/1qscC00.pdb
 181 179 0 0 0
SMALL
GASTEIGER

@<TRIPOS>ATOM
      1  N         31.1810   72.2310   46.9760 N.3    53  PHE53      -0.1241
      2  CA        31.2110   72.3250   45.5190 C.3    53  PHE53       0.1605
      3  C         30.1860   71.3200   45.0050 C.2    53  PHE53       0.2264
      4  O         30.0190   70.2510   45.5860 O.2    53  PHE53      -0.2867
      5  CB        32.5710   71.9070   44.9580 C.3    53  PHE53       0.0534
      6  CG        33.6180   72.9660   45.0260 C.ar   53  PHE53      -0.0203
      7  CD1       34.6770   72.8560   45.9270 C.ar   53  PHE53      -0.0042
      8  CD2       33.5720   74.0570   44.1680 C.ar   53  PHE53      -0.0042
      9  CE1       35.6750   73.8160   45.9690 C.ar   53  PHE53      -0.0003
     10  CE2       34.5660   75.0280   44.1980 C.ar   53  PHE53      -0.0003
     11  CZ        35.6220   74.9090   45.1000 C.ar   53  PHE53      -0.0000
     12  N         29.2640   76.5510   43.7210 N.3    68  ARG68      -0.1245
     13  CA        29.8250   76.5040   45.0590 C.3    68  ARG68       0.1563
     14  C         28.8600   77.2290   45.9790 C.2    68  ARG68       0.2260
     15  O         28.4310   78.3430   45.6940 O.2    68  ARG68      -0.2867
     16  CB        31.1930   77.1670   45.1190 C.3    68  ARG68       0.0307
     17  CG        31.9210   76.7830   46.3580 C.3    68  ARG68       0.0489
     18  CD        33.2590   77.4630   46.4620 C.3    68  ARG68       0.2205
     19  NE        34.0980   76.7220   47.3930 N.pl3  68  ARG68      -0.0865
     20  CZ        35.3560   77.0240   47.6750 C.cat  68  ARG68       0.5346
     21  NH1       35.9350   78.0720   47.0970 N.pl3  68  ARG68       0.1354
     22  NH2       36.0360   76.2580   48.5150 N.pl3  68  ARG68       0.1354
     23  N         27.7280   78.3440   50.1320 N.3    70  TYR70      -0.1241
     24  CA        28.1520   78.5910   51.5120 C.3    70  TYR70       0.1605
     25  C         26.8370   78.6450   52.2860 C.2    70  TYR70       0.2264
     26  O         26.1480   79.6660   52.2850 O.2    70  TYR70      -0.2867
     27  CB        28.8680   79.9380   51.6690 C.3    70  TYR70       0.0534
     28  CG        30.2220   80.0520   51.0010 C.ar   70  TYR70      -0.0201
     29  CD1       30.3330   80.1430   49.6140 C.ar   70  TYR70      -0.0009
     30  CD2       31.3940   80.1210   51.7640 C.ar   70  TYR70      -0.0009
     31  CE1       31.5700   80.3050   48.9990 C.ar   70  TYR70       0.0417
     32  CE2       32.6400   80.2800   51.1560 C.ar   70  TYR70       0.0417
     33  CZ        32.7180   80.3720   49.7770 C.ar   70  TYR70       0.1957
     34  OH        33.9340   80.5260   49.1640 O.3    70  TYR70      -0.2866
     35  N         29.0790   84.0170   52.6740 N.3    74  ASP74      -0.1225
     36  CA        30.4640   84.3560   52.3600 C.3    74  ASP74       0.1805
     37  C         30.5450   85.8550   52.1190 C.2    74  ASP74       0.2598
     38  O         29.6100   86.4550   51.5820 O.2    74  ASP74      -0.2718
     39  CB        30.9390   83.6430   51.0880 C.3    74  ASP74       0.1424
     40  CG        32.3010   84.1490   50.6040 C.2    74  ASP74       0.3668
     41  OD1       32.3680   84.9420   49.6350 O.co2  74  ASP74      -0.2456
     42  OD2       33.3160   83.7580   51.2100 O.co2  74  ASP74      -0.2456
     43  N         31.6670   86.4500   52.5080 N.am   75  GLY75      -0.1942
     44  CA        31.8630   87.8750   52.3140 C.3    75  GLY75       0.2014
     45  C         30.7880   88.7480   52.9330 C.2    75  GLY75       0.2639
     46  O         30.5000   88.6470   54.1260 O.2    75  GLY75      -0.2714
     47  N         30.1910   89.6030   52.1070 N.am   76  THR76      -0.1950
     48  CA        29.1460   90.5170   52.5490 C.3    76  THR76       0.1897
     49  C         27.9070   89.8000   53.0770 C.2    76  THR76       0.2313
     50  O         27.0340   90.4240   53.6850 O.2    76  THR76      -0.2863
     51  CB        28.7230   91.4630   51.4070 C.3    76  THR76       0.1794
     52  OG1       28.2410   90.6900   50.2980 O.3    76  THR76      -0.2208
     53  CG2       29.9130   92.3320   50.9590 C.3    76  THR76       0.0378
     54  N         27.5030   80.6020   44.3590 N.3    85  PHE85      -0.1241
     55  CA        28.3850   81.0680   43.3000 C.3    85  PHE85       0.1605
     56  C         28.5030   80.1060   42.1260 C.2    85  PHE85       0.2264
     57  O         28.2310   78.9120   42.2370 O.2    85  PHE85      -0.2867
     58  CB        29.7910   81.3220   43.8480 C.3    85  PHE85       0.0534
     59  CG        29.8360   82.2810   45.0030 C.ar   85  PHE85      -0.0203
     60  CD1       29.6040   81.8400   46.3020 C.ar   85  PHE85      -0.0042
     61  CD2       30.1160   83.6310   44.7910 C.ar   85  PHE85      -0.0042
     62  CE1       29.6550   82.7330   47.3740 C.ar   85  PHE85      -0.0003
     63  CE2       30.1660   84.5290   45.8580 C.ar   85  PHE85      -0.0003
     64  CZ        29.9370   84.0780   47.1490 C.ar   85  PHE85      -0.0000
     65  N         20.1590   86.2620   38.5750 N.3   119  ALA119     -0.1231
     66  CA        20.9220   86.0010   37.3730 C.3   119  ALA119      0.1694
     67  C         22.0160   87.0390   37.2200 C.2   119  ALA119      0.2592
     68  O         22.0430   88.0400   37.9340 O.2   119  ALA119     -0.2718
     69  CB        20.0080   86.0230   36.1730 C.3   119  ALA119      0.0304
     70  N         22.9270   86.8010   36.2890 N.am  120  PHE120     -0.1962
     71  CA        24.0010   87.7440   36.0750 C.3   120  PHE120      0.1771
     72  C         24.7020   87.4870   34.7610 C.2   120  PHE120      0.2619
     73  O         24.6080   86.4000   34.1950 O.2   120  PHE120     -0.2715
     74  CB        25.0030   87.6690   37.2380 C.3   120  PHE120      0.0574
     75  CG        25.7940   86.3800   37.3040 C.ar  120  PHE120     -0.0200
     76  CD1       26.7590   86.0740   36.3390 C.ar  120  PHE120     -0.0042
     77  CD2       25.6160   85.5000   38.3620 C.ar  120  PHE120     -0.0042
     78  CE1       27.5350   84.9120   36.4380 C.ar  120  PHE120     -0.0003
     79  CE2       26.3890   84.3340   38.4670 C.ar  120  PHE120     -0.0003
     80  CZ        27.3470   84.0440   37.5080 C.ar  120  PHE120     -0.0000
     81  N         25.3850   88.5080   34.2670 N.am  121  ARG121     -0.1964
     82  CA        26.1510   88.3880   33.0420 C.3   121  ARG121      0.1714
     83  C         27.6000   88.5180   33.4790 C.2   121  ARG121      0.2458
     84  O         27.9410   89.3850   34.2740 O.2   121  ARG121     -0.2730
     85  CB        25.7740   89.4840   32.0480 C.3   121  ARG121      0.0347
     86  CG        24.4400   89.2340   31.3630 C.3   121  ARG121      0.0492
     87  CD        24.1780   90.2220   30.2390 C.3   121  ARG121      0.2205
     88  NE        23.0090   89.8320   29.4580 N.pl3 121  ARG121     -0.0865
     89  CZ        22.9290   88.7110   28.7470 C.cat 121  ARG121      0.5346
     90  NH1       23.9520   87.8660   28.7140 N.pl3 121  ARG121      0.1354
     91  NH2       21.8240   88.4300   28.0700 N.pl3 121  ARG121      0.1354
     92  N         28.4710   87.6370   32.9820 N.am  122  PRO122     -0.2716
     93  CA        29.8820   87.6880   33.3590 C.3   122  PRO122      0.1536
     94  C         30.5860   89.0040   33.0600 C.2   122  PRO122      0.2598
     95  O         30.2870   89.6760   32.0780 O.2   122  PRO122     -0.2715
     96  CB        30.4920   86.5330   32.5650 C.3   122  PRO122      0.0310
     97  CG        29.3630   85.5850   32.4180 C.3   122  PRO122      0.0237
     98  CD        28.2180   86.5020   32.0800 C.3   122  PRO122      0.0939
     99  N         31.5150   89.3560   33.9400 N.am  123  ASP123     -0.1972
    100  CA        32.3440   90.5390   33.7870 C.3   123  ASP123      0.1709
    101  C         33.5620   89.9440   33.0820 C.2   123  ASP123      0.2293
    102  O         34.4190   89.3190   33.7110 O.2   123  ASP123     -0.2864
    103  CB        32.7110   91.1020   35.1660 C.3   123  ASP123      0.1436
    104  CG        33.6500   92.3000   35.0890 C.2   123  ASP123      0.3671
    105  OD1       33.5820   93.0660   34.1000 O.co2 123  ASP123     -0.2456
    106  OD2       34.4490   92.4830   36.0360 O.co2 123  ASP123     -0.2456
    107  N         36.9660   89.9380   34.6310 N.3   126  SER126     -0.1202
    108  CA        37.1410   89.2400   35.9000 C.3   126  SER126      0.2020
    109  C         37.9560   87.9640   35.7290 C.2   126  SER126      0.2619
    110  O         37.8240   87.2670   34.7210 O.2   126  SER126     -0.2717
    111  CB        35.7720   88.8800   36.4930 C.3   126  SER126      0.2103
    112  OG        35.9130   88.0360   37.6260 O.3   126  SER126     -0.2182
    113  N         38.7910   87.6520   36.7130 N.am  127  SER127     -0.1937
    114  CA        39.5960   86.4360   36.6410 C.3   127  SER127      0.2055
    115  C         38.7140   85.2010   36.8030 C.2   127  SER127      0.2644
    116  O         39.1540   84.0780   36.5600 O.2   127  SER127     -0.2714
    117  CB        40.6930   86.4260   37.7180 C.3   127  SER127      0.2130
    118  OG        40.1510   86.4340   39.0240 O.3   127  SER127     -0.2179
    119  N         37.4670   85.4060   37.2150 N.am  128  SER128     -0.1935
    120  CA        36.5560   84.2850   37.3800 C.3   128  SER128      0.2055
    121  C         36.1360   83.7060   36.0330 C.2   128  SER128      0.2643
    122  O         35.6750   82.5720   35.9630 O.2   128  SER128     -0.2714
    123  CB        35.3070   84.7130   38.1530 C.3   128  SER128      0.2130
    124  OG        35.5950   84.9200   39.5230 O.3   128  SER128     -0.2179
    125  N         36.3160   84.4770   34.9650 N.am  129  PHE129     -0.1973
    126  CA        35.9040   84.0340   33.6360 C.3   129  PHE129      0.1639
    127  C         37.0080   83.8810   32.5930 C.2   129  PHE129      0.2290
    128  O         36.7300   83.6740   31.4090 O.2   129  PHE129     -0.2864
    129  CB        34.8070   84.9700   33.1260 C.3   129  PHE129      0.0560
    130  CG        33.6480   85.0960   34.0790 C.ar  129  PHE129     -0.0200
    131  CD1       33.4960   86.2260   34.8700 C.ar  129  PHE129     -0.0042
    132  CD2       32.7460   84.0460   34.2360 C.ar  129  PHE129     -0.0042
    133  CE1       32.4660   86.3080   35.8060 C.ar  129  PHE129     -0.0003
    134  CE2       31.7170   84.1220   35.1680 C.ar  129  PHE129     -0.0003
    135  CZ        31.5770   85.2550   35.9540 C.ar  129  PHE129     -0.0000
    136  N         38.4730   78.1560   38.6350 N.3   136  ASN136     -0.1225
    137  CA        38.6720   79.5950   38.7140 C.3   136  ASN136      0.1785
    138  C         38.0160   80.0520   40.0100 C.2   136  ASN136      0.2597
    139  O         37.3180   79.2750   40.6650 O.2   136  ASN136     -0.2718
    140  CB        38.0030   80.3120   37.5370 C.3   136  ASN136      0.1169
    141  CG        38.8790   80.3560   36.3040 C.2   136  ASN136      0.2627
    142  OD1       40.0210   79.9110   36.3240 O.2   136  ASN136     -0.2716
    143  ND2       38.3500   80.9070   35.2250 N.am  136  ASN136     -0.0877
    144  N         38.2490   81.3060   40.3810 N.am  137  ILE137     -0.1966
    145  CA        37.6460   81.8800   41.5730 C.3   137  ILE137      0.1727
    146  C         36.1360   81.9220   41.3160 C.2   137  ILE137      0.2616
    147  O         35.6920   82.4240   40.2840 O.2   137  ILE137     -0.2715
    148  CB        38.1850   83.3220   41.8210 C.3   137  ILE137      0.0290
    149  CG1       39.6860   83.2620   42.1160 C.3   137  ILE137      0.0022
    150  CG2       37.4550   83.9830   43.0000 C.3   137  ILE137      0.0023
    151  CD1       40.3590   84.6150   42.2220 C.3   137  ILE137      0.0001
    152  N         35.3530   81.3730   42.2390 N.am  138  ALA138     -0.1963
    153  CA        33.9040   81.3620   42.0850 C.3   138  ALA138      0.1728
    154  C         33.3960   82.7920   42.1020 C.2   138  ALA138      0.2617
    155  O         33.9880   83.6620   42.7340 O.2   138  ALA138     -0.2715
    156  CB        33.2510   80.5580   43.2100 C.3   138  ALA138      0.0334
    157  N         32.2990   83.0250   41.3950 N.am  139  SER139     -0.1936
    158  CA        31.6970   84.3450   41.3150 C.3   139  SER139      0.2058
    159  C         30.1880   84.1830   41.2260 C.2   139  SER139      0.2682
    160  O         29.6920   83.2630   40.5770 O.2   139  SER139     -0.2710
    161  CB        32.2130   85.0860   40.0870 C.3   139  SER139      0.2130
    162  OG        31.6410   86.3750   39.9950 O.3   139  SER139     -0.2179
    163  N         29.4550   85.0720   41.8810 N.am  140  GLY140     -0.1729
    164  CA        28.0140   84.9590   41.8450 C.2   140  GLY140      0.1340
    165  C         27.2170   85.8470   42.7780 C.2   140  GLY140      0.2521
    166  O         27.2560   87.0730   42.6560 O.2   140  GLY140     -0.2816
    167  N         26.6120   86.6440   46.7810 N.3   142  PRO142     -0.2102
    168  CA        26.9390   86.5530   48.2090 C.3   142  PRO142      0.1504
    169  C         25.6920   86.6870   49.0760 C.2   142  PRO142      0.2575
    170  O         25.6170   86.1280   50.1740 O.2   142  PRO142     -0.2718
    171  CB        27.8920   87.7290   48.4270 C.3   142  PRO142      0.0282
    172  CG        28.3770   88.0790   47.0620 C.3   142  PRO142      0.0208
    173  CD        27.1820   87.8690   46.2010 C.3   142  PRO142      0.0893
    174  N         24.7180   87.4340   48.5660 N.am  143  LEU143     -0.1980
    175  CA        23.4620   87.6730   49.2770 C.3   143  LEU143      0.1596
    176  C         22.3030   87.0360   48.5210 C.2   143  LEU143      0.2287
    177  O         21.2630   87.6630   48.3240 O.2   143  LEU143     -0.2864
    178  CB        23.2180   89.1790   49.3990 C.3   143  LEU143      0.0297
    179  CG        24.3760   90.0000   49.9730 C.3   143  LEU143      0.0022
    180  CD1       24.1080   91.4860   49.7970 C.3   143  LEU143      0.0001
    181  CD2       24.5680   89.6420   51.4360 C.3   143  LEU143      0.0001
@<TRIPOS>BOND
     1    91    89    1
     2    90    89    1
     3    89    88    2
     4    88    87    1
     5    87    86    1
     6    86    85    1
     7   128   127    2
     8    85    82    1
     9    95    94    2
    10    98    97    1
    11    98    92    1
    12    97    96    1
    13    96    93    1
    14   127   126    1
    15    92    93    1
    16    92    83   am
    17    82    83    1
    18    82    81    1
    19    94    93    1
    20    94    99   am
    21   101   102    2
    22   101   100    1
    23   129   126    1
    24   129   130    1
    25    83    84    2
    26   126   125    1
    27   100    99    1
    28   100   103    1
    29   130   132   ar
    30   130   131   ar
    31   105   104   ar
    32    73    72    2
    33   132   134   ar
    34    81    72   am
    35   107   108    1
    36   110   109    2
    37    72    71    1
    38   131   133   ar
    39   125   121   am
    40   104   103    1
    41   104   106   ar
    42   134   135   ar
    43   143   141   am
    44   109   108    1
    45   109   113   am
    46   133   135   ar
    47   108   111    1
    48   122   121    2
    49   121   120    1
    50    71    70    1
    51    71    74    1
    52    69    66    1
    53    70    67   am
    54   141   142    2
    55   141   140    1
    56    76    78   ar
    57    76    75   ar
    58    78    80   ar
    59   111   112    1
    60   116   115    2
    61   114   113    1
    62   114   115    1
    63   114   117    1
    64   115   119   am
    65   119   120    1
    66    67    66    1
    67    67    68    2
    68    74    75    1
    69    75    77   ar
    70    66    65    1
    71   120   123    1
    72    80    79   ar
    73   140   137    1
    74   117   118    1
    75   123   124    1
    76    77    79   ar
    77   136   137    1
    78   137   138    1
    79   162   161    1
    80   138   144   am
    81   138   139    2
    82   161   158    1
    83   147   146    2
    84   144   145    1
    85   160   159    2
    86   159   158    1
    87   159   163    1
    88   158   157    1
    89   146   145    1
    90   146   152   am
    91   157   154   am
    92   145   148    1
    93   148   149    1
    94   148   150    1
    95   164   163    2
    96   164   165    1
    97   153   154    1
    98   153   152    1
    99   153   156    1
   100   154   155    2
   101   149   151    1
   102    56    57    2
   103    56    55    1
   104   166   165    2
   105    55    58    1
   106    55    54    1
   107    12    13    1
   108    58    59    1
   109     8    10   ar
   110     8     6   ar
   111    10    11   ar
   112    61    59   ar
   113    61    63   ar
   114     5     6    1
   115     5     2    1
   116    59    60   ar
   117     3     2    1
   118     3     4    2
   119     6     7   ar
   120    13    16    1
   121    13    14    1
   122    11     9   ar
   123    16    17    1
   124     2     1    1
   125    15    14    2
   126    63    64   ar
   127     7     9   ar
   128   173   167    1
   129   173   172    1
   130    60    62   ar
   131    17    18    1
   132    18    19    1
   133   167   168    1
   134   172   171    1
   135    21    20    1
   136    64    62   ar
   137    19    20    2
   138    20    22    1
   139   168   171    1
   140   168   169    1
   141   177   176    2
   142   176   175    1
   143   174   169   am
   144   174   175    1
   145    31    29   ar
   146    31    33   ar
   147   169   170    2
   148    34    33    1
   149   175   178    1
   150   178   179    1
   151    29    28   ar
   152    41    40   ar
   153    33    32   ar
   154   180   179    1
   155   179   181    1
   156    23    24    1
   157    52    51    1
   158    40    39    1
   159    40    42   ar
   160    53    51    1
   161    28    27    1
   162    28    30   ar
   163    39    36    1
   164    32    30   ar
   165    51    48    1
   166    24    27    1
   167    24    25    1
   168    38    37    2
   169    47    48    1
   170    47    45   am
   171    37    36    1
   172    37    43   am
   173    26    25    2
   174    44    43    1
   175    44    45    1
   176    36    35    1
   177    48    49    1
   178    45    46    2
   179    49    50    2
