@<TRIPOS>MOLECULE
tmp/1qseD00.pdb
 84 83 0 0 0
SMALL
GASTEIGER

@<TRIPOS>ATOM
      1  N         88.6140  -17.7490   40.2600 N.3    27  ARG27      -0.1231
      2  CA        88.7550  -16.4970   39.5170 C.3    27  ARG27       0.1694
      3  C         88.1250  -15.2790   40.1880 C.2    27  ARG27       0.2592
      4  O         88.5860  -14.1520   40.0020 O.2    27  ARG27      -0.2718
      5  CB        88.1000  -16.5940   38.1260 C.3    27  ARG27       0.0321
      6  CG        88.9530  -17.2620   37.0630 C.3    27  ARG27       0.0489
      7  CD        88.5260  -16.9460   35.6280 C.3    27  ARG27       0.2205
      8  NE        89.6730  -16.5640   34.8030 N.pl3  27  ARG27      -0.0865
      9  CZ        90.2690  -15.3800   34.8690 C.cat  27  ARG27       0.5346
     10  NH1       89.8230  -14.4640   35.7090 N.pl3  27  ARG27       0.1354
     11  NH2       91.3110  -15.0890   34.1030 N.pl3  27  ARG27       0.1354
     12  N         87.0680  -15.5250   40.9580 N.am   28  GLY28      -0.1957
     13  CA        86.2940  -14.4570   41.5810 C.3    28  GLY28       0.1869
     14  C         86.7560  -13.9020   42.9090 C.2    28  GLY28       0.2309
     15  O         86.2030  -12.9240   43.3970 O.2    28  GLY28      -0.2863
     16  N         88.2910  -11.8070   45.8560 N.3    30  GLN30      -0.1231
     17  CA        88.4230  -10.3510   45.8770 C.3    30  GLN30       0.1698
     18  C         89.1800   -9.8100   47.0950 C.2    30  GLN30       0.2592
     19  O         89.4950   -8.6150   47.1560 O.2    30  GLN30      -0.2718
     20  CB        87.0360   -9.7170   45.8390 C.3    30  GLN30       0.0381
     21  CG        86.1730  -10.1400   44.6470 C.3    30  GLN30       0.0905
     22  CD        84.7130   -9.7070   44.7910 C.2    30  GLN30       0.2608
     23  OE1       84.4270   -8.5270   44.9480 O.2    30  GLN30      -0.2717
     24  NE2       83.7930  -10.6520   44.7270 N.am   30  GLN30      -0.0878
     25  N         89.4630  -10.6830   48.0520 N.am   31  SER31      -0.1952
     26  CA        90.1890  -10.2990   49.2610 C.3    31  SER31       0.1924
     27  C         91.2810  -11.3160   49.5490 C.2    31  SER31       0.2314
     28  O         91.0320  -12.5230   49.5190 O.2    31  SER31      -0.2863
     29  CB        89.2470  -10.2380   50.4540 C.3    31  SER31       0.2116
     30  OG        88.1630   -9.3570   50.2060 O.3    31  SER31      -0.2180
     31  N         93.1390   -5.8240   48.8510 N.3    50  TYR50      -0.1241
     32  CA        91.8480   -5.9070   48.1770 C.3    50  TYR50       0.1605
     33  C         91.8940   -5.3620   46.7460 C.2    50  TYR50       0.2264
     34  O         90.8620   -5.2660   46.0810 O.2    50  TYR50      -0.2867
     35  CB        90.7830   -5.1360   48.9520 C.3    50  TYR50       0.0534
     36  CG        90.7770   -5.3720   50.4360 C.ar   50  TYR50      -0.0201
     37  CD1       90.5940   -6.6440   50.9680 C.ar   50  TYR50      -0.0009
     38  CD2       90.9040   -4.2980   51.3160 C.ar   50  TYR50      -0.0009
     39  CE1       90.5320   -6.8340   52.3500 C.ar   50  TYR50       0.0417
     40  CE2       90.8420   -4.4750   52.6850 C.ar   50  TYR50       0.0417
     41  CZ        90.6560   -5.7380   53.1970 C.ar   50  TYR50       0.1957
     42  OH        90.5950   -5.8710   54.5630 O.3    50  TYR50      -0.2866
     43  N         89.4670  -15.0490   49.7470 N.3    91  THR91      -0.1203
     44  CA        88.0100  -15.2190   49.7490 C.3    91  THR91       0.1994
     45  C         87.3190  -14.4290   48.6490 C.2    91  THR91       0.2619
     46  O         87.8950  -13.5120   48.0740 O.2    91  THR91      -0.2717
     47  CB        87.3500  -14.8460   51.1020 C.3    91  THR91       0.1784
     48  OG1       86.8070  -13.5260   51.0340 O.3    91  THR91      -0.2211
     49  CG2       88.3600  -14.8910   52.2030 C.3    91  THR91       0.0376
     50  N         86.0690  -14.7930   48.3800 N.am   92  THR92      -0.1938
     51  CA        85.2580  -14.1770   47.3410 C.3    92  THR92       0.2028
     52  C         84.2930  -13.1300   47.8660 C.2    92  THR92       0.2642
     53  O         84.2280  -12.0330   47.3310 O.2    92  THR92      -0.2714
     54  CB        84.4490  -15.2370   46.6250 C.3    92  THR92       0.1808
     55  OG1       83.7410  -16.0190   47.5940 O.3    92  THR92      -0.2208
     56  CG2       85.3610  -16.1500   45.8460 C.3    92  THR92       0.0379
     57  N         83.5560  -13.4700   48.9180 N.am   93  ASP93      -0.1957
     58  CA        82.5850  -12.5550   49.5080 C.3    93  ASP93       0.1840
     59  C         82.4390  -12.6750   51.0270 C.2    93  ASP93       0.2623
     60  O         83.1180  -13.4490   51.6910 O.2    93  ASP93      -0.2715
     61  CB        81.2240  -12.8080   48.9080 C.3    93  ASP93       0.1450
     62  CG        80.7510  -14.2030   49.1980 C.2    93  ASP93       0.3671
     63  OD1       81.3170  -15.1400   48.6070 O.co2  93  ASP93      -0.2456
     64  OD2       79.8480  -14.3590   50.0410 O.co2  93  ASP93      -0.2456
     65  N         81.5100  -11.8890   51.5550 N.am   94  SER94      -0.1936
     66  CA        81.2250  -11.8530   52.9840 C.3    94  SER94       0.2055
     67  C         80.8640  -13.2290   53.5000 C.2    94  SER94       0.2643
     68  O         81.2340  -13.6170   54.6030 O.2    94  SER94      -0.2714
     69  CB        80.0640  -10.8990   53.2730 C.3    94  SER94       0.2130
     70  OG        80.5270   -9.5860   53.5430 O.3    94  SER94      -0.2179
     71  N         80.1240  -13.9630   52.6960 N.am   95  TRP95      -0.1973
     72  CA        79.6770  -15.2790   53.0960 C.3    95  TRP95       0.1640
     73  C         80.4640  -16.4080   52.4750 C.2    95  TRP95       0.2290
     74  O         80.1100  -17.5680   52.6210 O.2    95  TRP95      -0.2864
     75  CB        78.1810  -15.4350   52.7780 C.3    95  TRP95       0.0576
     76  CG        77.2890  -14.6940   53.7450 C.ar   95  TRP95       0.0006
     77  CD1       77.6760  -14.0910   54.9170 C.ar   95  TRP95       0.0946
     78  CD2       75.8690  -14.5910   53.7030 C.ar   95  TRP95       0.0152
     79  NE1       76.5810  -13.6250   55.6010 N.ar   95  TRP95      -0.2442
     80  CE2       75.4580  -13.9120   54.8770 C.ar   95  TRP95       0.0810
     81  CE3       74.8970  -14.9940   52.7830 C.ar   95  TRP95       0.0012
     82  CZ2       74.1160  -13.6470   55.1590 C.ar   95  TRP95       0.0191
     83  CZ3       73.5610  -14.7250   53.0700 C.ar   95  TRP95       0.0001
     84  CH2       73.1840  -14.0550   54.2470 C.ar   95  TRP95       0.0015
@<TRIPOS>BOND
     1    11     9    1
     2     8     9    2
     3     8     7    1
     4     9    10    1
     5     7     6    1
     6     6     5    1
     7     5     2    1
     8     2     3    1
     9     2     1    1
    10     4     3    2
    11     3    12   am
    12    12    13    1
    13    13    14    1
    14    14    15    2
    15    21    22    1
    16    21    20    1
    17    24    22   am
    18    22    23    2
    19    20    17    1
    20    56    54    1
    21    16    17    1
    22    17    18    1
    23    34    33    2
    24    54    51    1
    25    54    55    1
    26    33    32    1
    27    18    19    2
    28    18    25   am
    29    53    52    2
    30    51    52    1
    31    51    50    1
    32    52    57   am
    33    25    26    1
    34    46    45    2
    35    32    31    1
    36    32    35    1
    37    50    45   am
    38    63    62   ar
    39    45    44    1
    40    61    62    1
    41    61    58    1
    42    57    58    1
    43    35    36    1
    44    62    64   ar
    45    26    27    1
    46    26    29    1
    47    58    59    1
    48    28    27    2
    49    43    44    1
    50    44    47    1
    51    30    29    1
    52    36    37   ar
    53    36    38   ar
    54    37    39   ar
    55    59    65   am
    56    59    60    2
    57    48    47    1
    58    47    49    1
    59    38    40   ar
    60    65    66    1
    61    39    41   ar
    62    73    74    2
    63    73    72    1
    64    40    41   ar
    65    71    72    1
    66    71    67   am
    67    75    72    1
    68    75    76    1
    69    81    83   ar
    70    81    78   ar
    71    66    69    1
    72    66    67    1
    73    83    84   ar
    74    41    42    1
    75    69    70    1
    76    67    68    2
    77    78    76   ar
    78    78    80   ar
    79    76    77   ar
    80    84    82   ar
    81    80    82   ar
    82    80    79   ar
    83    77    79   ar
