@<TRIPOS>MOLECULE
tmp/1qsgG02.pdb
 140 133 0 0 0
SMALL
GASTEIGER

@<TRIPOS>ATOM
      1  N         32.8950   30.8200   59.0520 N.3    91  ILE91      -0.1231
      2  CA        31.5920   30.2980   58.7300 C.3    91  ILE91       0.1692
      3  C         31.3620   30.1490   57.2200 C.2    91  ILE91       0.2593
      4  O         31.5400   31.1130   56.4800 O.2    91  ILE91      -0.2718
      5  CB        30.5070   31.3290   59.2320 C.3    91  ILE91       0.0266
      6  CG1       30.4100   31.3270   60.7730 C.3    91  ILE91       0.0019
      7  CG2       29.1050   31.0620   58.6910 C.3    91  ILE91       0.0020
      8  CD1       29.6010   32.4930   61.3190 C.3    91  ILE91       0.0001
      9  N         30.9130   28.9810   56.7900 N.am   92  GLY92      -0.1942
     10  CA        30.5620   28.7780   55.3780 C.3    92  GLY92       0.2014
     11  C         29.5170   27.6760   55.2270 C.2    92  GLY92       0.2639
     12  O         29.4330   26.7560   56.0640 O.2    92  GLY92      -0.2714
     13  N         28.7070   27.7390   54.1550 N.am   93  PHE93      -0.1959
     14  CA        27.7330   26.6910   53.8760 C.3    93  PHE93       0.1771
     15  C         27.1500   26.7920   52.4480 C.2    93  PHE93       0.2619
     16  O         26.9350   27.8980   51.9440 O.2    93  PHE93      -0.2715
     17  CB        26.5040   26.7410   54.8360 C.3    93  PHE93       0.0574
     18  CG        25.5400   25.5990   54.6290 C.ar   93  PHE93      -0.0200
     19  CD1       25.8580   24.3120   55.0560 C.ar   93  PHE93      -0.0042
     20  CD2       24.3250   25.8020   53.9840 C.ar   93  PHE93      -0.0042
     21  CE1       24.9670   23.2660   54.8230 C.ar   93  PHE93      -0.0003
     22  CE2       23.4290   24.7660   53.7730 C.ar   93  PHE93      -0.0003
     23  CZ        23.7560   23.4860   54.1810 C.ar   93  PHE93      -0.0000
     24  N         26.8180   25.6490   51.8870 N.am   94  ALA94      -0.1977
     25  CA        26.0620   25.4260   50.6800 C.3    94  ALA94       0.1597
     26  C         25.4460   24.0200   50.7190 C.2    94  ALA94       0.2287
     27  O         26.0900   23.0860   51.2270 O.2    94  ALA94      -0.2864
     28  CB        26.9100   25.5350   49.3970 C.3    94  ALA94       0.0319
     29  N         27.9700   20.6070   45.5070 N.3    99  LEU99      -0.1245
     30  CA        29.3870   20.2670   45.4940 C.3    99  LEU99       0.1561
     31  C         29.7910   18.9770   44.8080 C.2    99  LEU99       0.2260
     32  O         30.8550   18.4040   45.1550 O.2    99  LEU99      -0.2867
     33  CB        29.8710   20.1820   46.9510 C.3    99  LEU99       0.0270
     34  CG        29.6110   21.4150   47.8200 C.3    99  LEU99       0.0019
     35  CD1       30.0110   21.1320   49.2640 C.3    99  LEU99       0.0001
     36  CD2       30.3310   22.6270   47.2690 C.3    99  LEU99       0.0001
     37  N         39.2400   30.9340   50.3300 N.3   145  TYR145     -0.1241
     38  CA        39.9430   29.8090   49.7130 C.3   145  TYR145      0.1605
     39  C         40.2840   30.1540   48.2610 C.2   145  TYR145      0.2264
     40  O         39.5460   30.9460   47.6310 O.2   145  TYR145     -0.2867
     41  CB        39.0800   28.5030   49.7960 C.3   145  TYR145      0.0534
     42  CG        39.8000   27.3360   49.1120 C.ar  145  TYR145     -0.0201
     43  CD1       41.0450   26.9090   49.5820 C.ar  145  TYR145     -0.0009
     44  CD2       39.2430   26.6710   48.0320 C.ar  145  TYR145     -0.0009
     45  CE1       41.7400   25.8700   48.9750 C.ar  145  TYR145      0.0417
     46  CE2       39.9380   25.6220   47.4170 C.ar  145  TYR145      0.0417
     47  CZ        41.1590   25.2330   47.8940 C.ar  145  TYR145      0.1957
     48  OH        41.8540   24.2240   47.2440 O.3   145  TYR145     -0.2866
     49  N         34.2450   22.3000   43.8820 N.3   155  TYR155     -0.1241
     50  CA        34.0350   23.4380   44.8060 C.3   155  TYR155      0.1605
     51  C         32.8810   24.2980   44.3050 C.2   155  TYR155      0.2264
     52  O         32.0220   24.8070   45.0590 O.2   155  TYR155     -0.2867
     53  CB        35.3150   24.2210   44.9910 C.3   155  TYR155      0.0534
     54  CG        35.3390   25.1850   46.1670 C.ar  155  TYR155     -0.0201
     55  CD1       35.2810   24.6590   47.4550 C.ar  155  TYR155     -0.0009
     56  CD2       35.4790   26.5580   46.0150 C.ar  155  TYR155     -0.0009
     57  CE1       35.3290   25.4860   48.5770 C.ar  155  TYR155      0.0417
     58  CE2       35.5660   27.4010   47.1180 C.ar  155  TYR155      0.0417
     59  CZ        35.4460   26.8600   48.3850 C.ar  155  TYR155      0.1957
     60  OH        35.5340   27.6810   49.5030 O.3   155  TYR155     -0.2866
     61  N         30.5640   27.5190   45.7260 N.3   158  MET158     -0.1245
     62  CA        31.3660   28.0520   46.8340 C.3   158  MET158      0.1570
     63  C         32.4790   28.9660   46.3280 C.2   158  MET158      0.2261
     64  O         32.8100   29.9710   46.9830 O.2   158  MET158     -0.2867
     65  CB        31.9170   26.9460   47.7390 C.3   158  MET158      0.0387
     66  CG        30.9380   26.3810   48.7530 C.3   158  MET158      0.0595
     67  SD        30.3070   27.5410   50.0010 S.3   158  MET158     -0.1393
     68  CE        31.7890   28.1460   50.7640 C.3   158  MET158      0.0692
     69  N         33.0280   32.7900   47.6690 N.3   162  LYS162     -0.1245
     70  CA        34.2910   33.2610   48.2490 C.3   162  LYS162      0.1561
     71  C         34.7750   34.4660   47.4300 C.2   162  LYS162      0.2260
     72  O         35.4070   35.3680   47.9970 O.2   162  LYS162     -0.2867
     73  CB        35.3310   32.1430   48.3110 C.3   162  LYS162      0.0271
     74  CG        34.9770   30.9770   49.2590 C.3   162  LYS162      0.0035
     75  CD        34.9030   31.5450   50.7210 C.3   162  LYS162      0.0206
     76  CE        34.9070   30.3270   51.6760 C.3   162  LYS162      0.1093
     77  NZ        34.8070   30.7710   53.0970 N.3   162  LYS162     -0.1314
     78  N         45.2260   27.2130   52.9460 N.3   189  GLY189     -0.1210
     79  CA        45.3680   25.9930   52.1190 C.3   189  GLY189      0.1940
     80  C         44.4630   24.9010   52.7200 C.2   189  GLY189      0.2454
     81  O         43.8670   25.0430   53.7950 O.2   189  GLY189     -0.2732
     82  N         44.3190   23.7800   52.0340 N.am  190  PRO190     -0.2717
     83  CA        43.4490   22.6770   52.4170 C.3   190  PRO190      0.1535
     84  C         43.8260   22.0390   53.7420 C.2   190  PRO190      0.2598
     85  O         45.0010   21.7240   53.9940 O.2   190  PRO190     -0.2715
     86  CB        43.4980   21.6130   51.2900 C.3   190  PRO190      0.0310
     87  CG        44.6930   22.0680   50.5120 C.3   190  PRO190      0.0237
     88  CD        44.9260   23.5480   50.7300 C.3   190  PRO190      0.0939
     89  N         42.8440   21.8550   54.6120 N.am  191  ILE191     -0.1978
     90  CA        42.9450   21.2550   55.9450 C.3   191  ILE191      0.1596
     91  C         41.7730   20.3140   56.2040 C.2   191  ILE191      0.2287
     92  O         40.5870   20.6980   55.9960 O.2   191  ILE191     -0.2864
     93  CB        42.9190   22.3650   57.0460 C.3   191  ILE191      0.0276
     94  CG1       44.0930   23.3350   56.9000 C.3   191  ILE191      0.0022
     95  CG2       42.8770   21.8080   58.4730 C.3   191  ILE191      0.0022
     96  CD1       43.9890   24.6280   57.6870 C.3   191  ILE191      0.0001
     97  N         38.7480   19.0680   57.8380 N.3   193  THR193     -0.1218
     98  CA        37.7610   19.4910   58.8190 C.3   193  THR193      0.1862
     99  C         36.4230   18.8460   58.4730 C.2   193  THR193      0.2287
    100  O         36.2810   18.2510   57.3840 O.2   193  THR193     -0.2866
    101  CB        37.5590   21.0390   58.8200 C.3   193  THR193      0.1770
    102  OG1       37.1280   21.4210   57.4940 O.3   193  THR193     -0.2211
    103  CG2       38.8460   21.7930   59.1450 C.3   193  THR193      0.0375
    104  N         33.5180   20.2760   57.5070 N.3   195  ALA195     -0.1231
    105  CA        33.0160   20.8800   56.2570 C.3   195  ALA195      0.1694
    106  C         33.8270   20.4500   55.0400 C.2   195  ALA195      0.2591
    107  O         33.2330   20.2190   53.9750 O.2   195  ALA195     -0.2718
    108  CB        33.0700   22.3950   56.3790 C.3   195  ALA195      0.0304
    109  N         35.1470   20.3060   55.1500 N.am  196  ALA196     -0.1980
    110  CA        36.0190   19.9170   54.0490 C.3   196  ALA196      0.1597
    111  C         35.6270   18.5200   53.5680 C.2   196  ALA196      0.2287
    112  O         35.6400   18.1840   52.3800 O.2   196  ALA196     -0.2864
    113  CB        37.4920   19.8670   54.4800 C.3   196  ALA196      0.0319
    114  N         33.1110   17.9010   50.5740 N.3   199  ILE199     -0.1245
    115  CA        33.5240   18.2040   49.2010 C.3   199  ILE199      0.1561
    116  C         33.8950   16.8920   48.5170 C.2   199  ILE199      0.2260
    117  O         34.7570   16.1760   49.0260 O.2   199  ILE199     -0.2867
    118  CB        34.7490   19.1450   49.1040 C.3   199  ILE199      0.0252
    119  CG1       34.5130   20.5000   49.7760 C.3   199  ILE199      0.0019
    120  CG2       35.0600   19.3880   47.5990 C.3   199  ILE199      0.0019
    121  CD1       35.7870   21.3040   49.9220 C.3   199  ILE199      0.0001
    122  N         37.7800   15.3340   48.4320 N.3   202  PHE202     -0.1241
    123  CA        38.6610   16.2230   49.1910 C.3   202  PHE202      0.1605
    124  C         40.0040   15.5730   49.5020 C.2   202  PHE202      0.2264
    125  O         41.0850   16.1860   49.4970 O.2   202  PHE202     -0.2867
    126  CB        38.0150   16.7060   50.5060 C.3   202  PHE202      0.0534
    127  CG        38.9400   17.5940   51.3080 C.ar  202  PHE202     -0.0203
    128  CD1       39.1430   18.9040   50.9590 C.ar  202  PHE202     -0.0042
    129  CD2       39.6040   17.0860   52.4320 C.ar  202  PHE202     -0.0042
    130  CE1       39.9980   19.7120   51.7000 C.ar  202  PHE202     -0.0003
    131  CE2       40.4600   17.8900   53.1750 C.ar  202  PHE202     -0.0003
    132  CZ        40.6670   19.2230   52.8080 C.ar  202  PHE202     -0.0000
    133  N         42.4590   16.3140   46.8060 N.3   205  MET205     -0.1245
    134  CA        42.9670   17.6810   46.8580 C.3   205  MET205      0.1570
    135  C         44.0840   17.7880   47.9020 C.2   205  MET205      0.2261
    136  O         45.1440   18.3980   47.7050 O.2   205  MET205     -0.2867
    137  CB        41.8820   18.7310   47.1990 C.3   205  MET205      0.0387
    138  CG        40.7590   18.8610   46.1740 C.3   205  MET205      0.0595
    139  SD        39.2680   19.7040   46.8190 S.3   205  MET205     -0.1393
    140  CE        39.9450   21.3460   47.0950 C.3   205  MET205      0.0692
@<TRIPOS>BOND
     1    49    50    1
     2    51    50    1
     3    51    52    2
     4    50    53    1
     5    31    32    2
     6    31    30    1
     7    53    54    1
     8    30    29    1
     9    30    33    1
    10    61    62    1
    11    56    54   ar
    12    56    58   ar
    13    54    55   ar
    14   138   139    1
    15   138   137    1
    16    63    62    1
    17    63    64    2
    18   133   134    1
    19   139   140    1
    20    62    65    1
    21   134   137    1
    22   134   135    1
    23    33    34    1
    24    58    59   ar
    25    48    47    1
    26    36    34    1
    27    46    47   ar
    28    46    44   ar
    29    71    72    2
    30    71    70    1
    31    55    57   ar
    32   120   118    1
    33    40    39    2
    34    69    70    1
    35   136   135    2
    36    65    66    1
    37    34    35    1
    38    47    45   ar
    39    44    42   ar
    40    70    73    1
    41    39    38    1
    42    73    74    1
    43    59    57   ar
    44    59    60    1
    45   122   123    1
    46   116   117    2
    47   116   115    1
    48    66    67    1
    49    45    43   ar
    50   118   115    1
    51   118   119    1
    52    42    43   ar
    53    42    41    1
    54   123   124    1
    55   123   126    1
    56   115   114    1
    57    74    75    1
    58    28    25    1
    59   125   124    2
    60    38    41    1
    61    38    37    1
    62   119   121    1
    63    67    68    1
    64   126   127    1
    65    87    88    1
    66    87    86    1
    67    25    26    1
    68    25    24    1
    69    26    27    2
    70    75    76    1
    71    88    82    1
    72   128   127   ar
    73   128   130   ar
    74    86    83    1
    75   127   129   ar
    76    76    77    1
    77   130   132   ar
    78    24    15   am
    79    16    15    2
    80    82    83    1
    81    82    80   am
    82    79    80    1
    83    79    78    1
    84   112   111    2
    85    83    84    1
    86   129   131   ar
    87    15    14    1
    88    80    81    2
    89   132   131   ar
    90   111   110    1
    91    84    85    2
    92    84    89   am
    93    22    20   ar
    94    22    23   ar
    95    14    13    1
    96    14    17    1
    97   107   106    2
    98    20    18   ar
    99   110   113    1
   100   110   109    1
   101    13    11   am
   102    23    21   ar
   103    89    90    1
   104    18    17    1
   105    18    19   ar
   106    21    19   ar
   107   106   109   am
   108   106   105    1
   109    11    10    1
   110    11    12    2
   111    10     9    1
   112    90    91    1
   113    90    93    1
   114    92    91    2
   115   105   108    1
   116   105   104    1
   117     4     3    2
   118     9     3   am
   119    94    93    1
   120    94    96    1
   121    93    95    1
   122     3     2    1
   123   100    99    2
   124   102   101    1
   125    97    98    1
   126    99    98    1
   127     7     5    1
   128     2     1    1
   129     2     5    1
   130    98   101    1
   131   101   103    1
   132     5     6    1
   133     6     8    1
