@<TRIPOS>MOLECULE
tmp/1qsmD00.pdb
 236 235 0 0 0
SMALL
GASTEIGER

@<TRIPOS>ATOM
      1  N         29.7240   76.3540  -12.0020 N.3    25  TYR25      -0.1241
      2  CA        30.2330   75.8010  -10.7560 C.3    25  TYR25       0.1605
      3  C         29.5360   76.4860   -9.5770 C.2    25  TYR25       0.2264
      4  O         29.1990   75.8370   -8.5870 O.2    25  TYR25      -0.2867
      5  CB        31.7510   76.0160  -10.7090 C.3    25  TYR25       0.0534
      6  CG        32.4390   75.6000   -9.4310 C.ar   25  TYR25      -0.0201
      7  CD1       32.6090   74.2530   -9.1070 C.ar   25  TYR25      -0.0009
      8  CD2       32.9720   76.5580   -8.5650 C.ar   25  TYR25      -0.0009
      9  CE1       33.2970   73.8710   -7.9570 C.ar   25  TYR25       0.0417
     10  CE2       33.6570   76.1890   -7.4160 C.ar   25  TYR25       0.0417
     11  CZ        33.8170   74.8450   -7.1210 C.ar   25  TYR25       0.1957
     12  OH        34.5100   74.4800   -5.9940 O.3    25  TYR25      -0.2866
     13  N         25.9610   75.3850   -9.2450 N.3    28  PHE28      -0.1227
     14  CA        25.9590   74.0700   -8.6380 C.3    28  PHE28       0.1736
     15  C         26.0390   74.2150   -7.1210 C.2    28  PHE28       0.2595
     16  O         25.2680   73.5890   -6.3900 O.2    28  PHE28      -0.2718
     17  CB        27.1270   73.2290   -9.1740 C.3    28  PHE28       0.0547
     18  CG        27.4530   72.0430   -8.3120 C.ar   28  PHE28      -0.0202
     19  CD1       26.5650   70.9770   -8.2080 C.ar   28  PHE28      -0.0042
     20  CD2       28.6080   72.0310   -7.5370 C.ar   28  PHE28      -0.0042
     21  CE1       26.8200   69.9180   -7.3360 C.ar   28  PHE28      -0.0003
     22  CE2       28.8680   70.9770   -6.6630 C.ar   28  PHE28      -0.0003
     23  CZ        27.9740   69.9200   -6.5610 C.ar   28  PHE28      -0.0000
     24  N         26.9720   75.0390   -6.6490 N.am   29  TYR29      -0.1976
     25  CA        27.1320   75.2620   -5.2180 C.3    29  TYR29       0.1639
     26  C         26.0520   76.1750   -4.6410 C.2    29  TYR29       0.2290
     27  O         25.9960   76.3860   -3.4250 O.2    29  TYR29      -0.2864
     28  CB        28.5050   75.8550   -4.9230 C.3    29  TYR29       0.0560
     29  CG        29.5380   74.8460   -4.4880 C.ar   29  TYR29      -0.0198
     30  CD1       30.6470   74.5720   -5.2790 C.ar   29  TYR29      -0.0009
     31  CD2       29.4160   74.1760   -3.2770 C.ar   29  TYR29      -0.0009
     32  CE1       31.6050   73.6590   -4.8720 C.ar   29  TYR29       0.0417
     33  CE2       30.3670   73.2660   -2.8650 C.ar   29  TYR29       0.0417
     34  CZ        31.4610   73.0090   -3.6620 C.ar   29  TYR29       0.1957
     35  OH        32.4220   72.1110   -3.2410 O.3    29  TYR29      -0.2866
     36  N         46.5520   72.6600   -2.8290 N.3    85  TYR85      -0.1227
     37  CA        45.1390   72.5320   -2.5410 C.3    85  TYR85       0.1736
     38  C         44.3110   72.7400   -3.7960 C.2    85  TYR85       0.2595
     39  O         44.4460   73.7560   -4.4760 O.2    85  TYR85      -0.2718
     40  CB        44.7320   73.5500   -1.4720 C.3    85  TYR85       0.0548
     41  CG        43.2660   73.5260   -1.1030 C.ar   85  TYR85      -0.0200
     42  CD1       42.6730   72.3720   -0.5990 C.ar   85  TYR85      -0.0009
     43  CD2       42.4700   74.6600   -1.2620 C.ar   85  TYR85      -0.0009
     44  CE1       41.3170   72.3430   -0.2640 C.ar   85  TYR85       0.0417
     45  CE2       41.1160   74.6440   -0.9300 C.ar   85  TYR85       0.0417
     46  CZ        40.5440   73.4820   -0.4330 C.ar   85  TYR85       0.1957
     47  OH        39.2030   73.4570   -0.1100 O.3    85  TYR85      -0.2866
     48  N         43.5150   71.7320   -4.1440 N.am   86  ILE86      -0.1966
     49  CA        42.6350   71.8320   -5.2940 C.3    86  ILE86       0.1727
     50  C         41.3970   72.4810   -4.7060 C.2    86  ILE86       0.2616
     51  O         40.7040   71.8880   -3.8770 O.2    86  ILE86      -0.2715
     52  CB        42.3020   70.4590   -5.8810 C.3    86  ILE86       0.0290
     53  CG1       43.5820   69.8140   -6.4170 C.3    86  ILE86       0.0022
     54  CG2       41.2680   70.5980   -6.9810 C.3    86  ILE86       0.0023
     55  CD1       43.4210   68.3910   -6.8960 C.3    86  ILE86       0.0001
     56  N         41.2020   73.7480   -5.0530 N.am   87  ASN87      -0.1958
     57  CA        40.0810   74.5240   -4.5460 C.3    87  ASN87       0.1819
     58  C         38.8060   74.2450   -5.3210 C.2    87  ASN87       0.2621
     59  O         37.7430   74.0740   -4.7290 O.2    87  ASN87      -0.2715
     60  CB        40.4160   76.0190   -4.6150 C.3    87  ASN87       0.1195
     61  CG        39.7110   76.8360   -3.5420 C.2    87  ASN87       0.2630
     62  OD1       40.3570   77.5490   -2.7780 O.2    87  ASN87      -0.2716
     63  ND2       38.3840   76.7430   -3.4890 N.am   87  ASN87      -0.0877
     64  N         38.9140   74.1830   -6.6450 N.am   88  ASP88      -0.1957
     65  CA        37.7440   73.9530   -7.4850 C.3    88  ASP88       0.1840
     66  C         37.9580   72.9170   -8.5770 C.2    88  ASP88       0.2622
     67  O         39.0670   72.7290   -9.0710 O.2    88  ASP88      -0.2715
     68  CB        37.2940   75.2680   -8.1220 C.3    88  ASP88       0.1450
     69  CG        37.3340   76.4290   -7.1470 C.2    88  ASP88       0.3671
     70  OD1       36.4770   76.4810   -6.2380 O.co2  88  ASP88      -0.2456
     71  OD2       38.2470   77.2690   -7.2780 O.co2  88  ASP88      -0.2456
     72  N         36.8610   72.2750   -8.9630 N.am   89  LEU89      -0.1963
     73  CA        36.8510   71.2520  -10.0000 C.3    89  LEU89       0.1728
     74  C         35.4440   71.1880  -10.5780 C.2    89  LEU89       0.2616
     75  O         34.4690   71.0020   -9.8530 O.2    89  LEU89      -0.2715
     76  CB        37.2360   69.8840   -9.4180 C.3    89  LEU89       0.0311
     77  CG        37.0630   68.6530  -10.3120 C.3    89  LEU89       0.0022
     78  CD1       37.9610   68.7640  -11.5340 C.3    89  LEU89       0.0001
     79  CD2       37.3810   67.3840   -9.5300 C.3    89  LEU89       0.0001
     80  N         35.3360   71.3610  -11.8860 N.am   90  TYR90      -0.1960
     81  CA        34.0390   71.3110  -12.5330 C.3    90  TYR90       0.1771
     82  C         34.1880   70.8140  -13.9460 C.2    90  TYR90       0.2619
     83  O         35.1530   71.1520  -14.6340 O.2    90  TYR90      -0.2715
     84  CB        33.3820   72.6880  -12.5450 C.3    90  TYR90       0.0574
     85  CG        31.9690   72.6780  -13.0790 C.ar   90  TYR90      -0.0198
     86  CD1       30.8840   72.4740  -12.2250 C.ar   90  TYR90      -0.0009
     87  CD2       31.7130   72.8600  -14.4390 C.ar   90  TYR90      -0.0009
     88  CE1       29.5810   72.4500  -12.7130 C.ar   90  TYR90       0.0417
     89  CE2       30.4180   72.8380  -14.9370 C.ar   90  TYR90       0.0417
     90  CZ        29.3570   72.6320  -14.0740 C.ar   90  TYR90       0.1957
     91  OH        28.0720   72.5980  -14.5720 O.3    90  TYR90      -0.2866
     92  N         33.2480   69.9670  -14.3490 N.am   91  VAL91      -0.1977
     93  CA        33.2030   69.4130  -15.6980 C.3    91  VAL91       0.1596
     94  C         31.7710   69.6060  -16.2020 C.2    91  VAL91       0.2287
     95  O         30.8120   69.3590  -15.4620 O.2    91  VAL91      -0.2864
     96  CB        33.5770   67.9140  -15.7160 C.3    91  VAL91       0.0276
     97  CG1       33.5000   67.3650  -17.1500 C.3    91  VAL91       0.0022
     98  CG2       34.9810   67.7200  -15.1440 C.3    91  VAL91       0.0022
     99  N         29.6060   66.4770  -20.5090 N.3    95  SER95      -0.1202
    100  CA        30.9390   65.9400  -20.7410 C.3    95  SER95       0.2020
    101  C         31.3940   65.0820  -19.5600 C.2    95  SER95       0.2619
    102  O         32.5630   64.7050  -19.4660 O.2    95  SER95      -0.2717
    103  CB        31.9180   67.0870  -20.9550 C.3    95  SER95       0.2103
    104  OG        31.4280   67.9740  -21.9420 O.3    95  SER95      -0.2182
    105  N         30.4640   64.7620  -18.6660 N.am   96  ARG96      -0.1965
    106  CA        30.7920   63.9640  -17.4950 C.3    96  ARG96       0.1729
    107  C         30.8640   62.4700  -17.7700 C.2    96  ARG96       0.2616
    108  O         30.3530   61.9840  -18.7800 O.2    96  ARG96      -0.2715
    109  CB        29.8170   64.2710  -16.3600 C.3    96  ARG96       0.0348
    110  CG        29.9930   65.6750  -15.8430 C.3    96  ARG96       0.0492
    111  CD        29.0080   66.0480  -14.7670 C.3    96  ARG96       0.2205
    112  NE        29.1510   67.4640  -14.4330 N.pl3  96  ARG96      -0.0865
    113  CZ        28.2040   68.2050  -13.8700 C.cat  96  ARG96       0.5346
    114  NH1       27.0240   67.6730  -13.5580 N.pl3  96  ARG96       0.1354
    115  NH2       28.4260   69.4920  -13.6520 N.pl3  96  ARG96       0.1354
    116  N         31.5310   61.7560  -16.8680 N.am   97  VAL97      -0.1963
    117  CA        31.7070   60.3110  -16.9670 C.3    97  VAL97       0.1727
    118  C         32.4550   59.9150  -18.2560 C.2    97  VAL97       0.2616
    119  O         32.2180   58.8550  -18.8370 O.2    97  VAL97      -0.2715
    120  CB        30.3450   59.5630  -16.8570 C.3    97  VAL97       0.0290
    121  CG1       30.5760   58.0900  -16.5540 C.3    97  VAL97       0.0023
    122  CG2       29.4740   60.1870  -15.7650 C.3    97  VAL97       0.0023
    123  N         33.3630   60.7890  -18.6860 N.am   98  LYS98      -0.1963
    124  CA        34.1800   60.5670  -19.8810 C.3    98  LYS98       0.1728
    125  C         35.6710   60.6910  -19.5260 C.2    98  LYS98       0.2617
    126  O         36.5190   60.8970  -20.4010 O.2    98  LYS98      -0.2715
    127  CB        33.8190   61.5740  -20.9850 C.3    98  LYS98       0.0311
    128  CG        32.3860   61.4750  -21.5110 C.3    98  LYS98       0.0038
    129  CD        32.1010   62.5700  -22.5500 C.3    98  LYS98       0.0206
    130  CE        30.6470   62.5560  -23.0420 C.3    98  LYS98       0.1093
    131  NZ        29.6470   62.9160  -21.9880 N.3    98  LYS98      -0.1314
    132  N         35.9690   60.6090  -18.2290 N.am   99  GLY99      -0.1940
    133  CA        37.3420   60.6870  -17.7520 C.3    99  GLY99       0.2014
    134  C         37.9460   62.0650  -17.5560 C.2    99  GLY99       0.2639
    135  O         39.0940   62.1700  -17.1270 O.2    99  GLY99      -0.2714
    136  N         37.1850   63.1160  -17.8560 N.am  100  ALA100     -0.1963
    137  CA        37.6700   64.4940  -17.7150 C.3   100  ALA100      0.1728
    138  C         38.0750   64.8460  -16.2830 C.2   100  ALA100      0.2617
    139  O         39.1890   65.3300  -16.0470 O.2   100  ALA100     -0.2715
    140  CB        36.6200   65.4780  -18.2200 C.3   100  ALA100      0.0334
    141  N         37.1740   64.5840  -15.3340 N.am  101  GLY101     -0.1940
    142  CA        37.4430   64.8760  -13.9340 C.3   101  GLY101      0.2014
    143  C         38.7410   64.2770  -13.4310 C.2   101  GLY101      0.2639
    144  O         39.5650   64.9730  -12.8300 O.2   101  GLY101     -0.2714
    145  N         38.9270   62.9860  -13.6920 N.am  102  GLY102     -0.1954
    146  CA        40.1330   62.3070  -13.2630 C.3   102  GLY102      0.1869
    147  C         41.3990   62.8700  -13.8890 C.2   102  GLY102      0.2309
    148  O         42.4120   63.0150  -13.1990 O.2   102  GLY102     -0.2863
    149  N         42.2400   68.1150   -1.1050 N.3   122  TRP122     -0.1227
    150  CA        41.0490   68.9050   -1.3790 C.3   122  TRP122      0.1737
    151  C         39.9430   68.4820   -0.4180 C.2   122  TRP122      0.2596
    152  O         40.1630   67.6730    0.4790 O.2   122  TRP122     -0.2718
    153  CB        40.5890   68.7090   -2.8400 C.3   122  TRP122      0.0564
    154  CG        40.2240   67.2790   -3.2090 C.ar  122  TRP122      0.0003
    155  CD1       38.9780   66.7170   -3.1740 C.ar  122  TRP122      0.0946
    156  CD2       41.1210   66.2340   -3.6140 C.ar  122  TRP122      0.0152
    157  NE1       39.0440   65.3900   -3.5190 N.ar  122  TRP122     -0.2442
    158  CE2       40.3460   65.0640   -3.7940 C.ar  122  TRP122      0.0810
    159  CE3       42.5030   66.1680   -3.8360 C.ar  122  TRP122      0.0012
    160  CZ2       40.9070   63.8420   -4.1840 C.ar  122  TRP122      0.0191
    161  CZ3       43.0630   64.9520   -4.2240 C.ar  122  TRP122      0.0001
    162  CH2       42.2640   63.8070   -4.3940 C.ar  122  TRP122      0.0015
    163  N         38.7660   69.0670   -0.5820 N.am  123  CYS123     -0.1956
    164  CA        37.6230   68.7170    0.2400 C.3   123  CYS123      0.1843
    165  C         36.3830   68.8800   -0.6260 C.2   123  CYS123      0.2626
    166  O         36.4020   69.6000   -1.6280 O.2   123  CYS123     -0.2714
    167  CB        37.5410   69.6000    1.4900 C.3   123  CYS123      0.0997
    168  SG        37.1220   71.3110    1.1670 S.3   123  CYS123     -0.0797
    169  N         35.3280   68.1610   -0.2690 N.am  124  THR124     -0.1950
    170  CA        34.0780   68.2070   -1.0050 C.3   124  THR124      0.1897
    171  C         32.9470   68.1840    0.0010 C.2   124  THR124      0.2313
    172  O         33.1540   67.8800    1.1780 O.2   124  THR124     -0.2863
    173  CB        33.9310   66.9740   -1.9440 C.3   124  THR124      0.1794
    174  OG1       32.7390   67.0950   -2.7290 O.3   124  THR124     -0.2208
    175  CG2       33.8570   65.6780   -1.1360 C.3   124  THR124      0.0378
    176  N         28.1250   65.1630   -1.6110 N.3   128  ASN128     -0.1240
    177  CA        28.5320   65.1130   -3.0140 C.3   128  ASN128      0.1653
    178  C         29.0600   63.7120   -3.3700 C.2   128  ASN128      0.2266
    179  O         30.2690   63.4720   -3.4340 O.2   128  ASN128     -0.2867
    180  CB        29.5890   66.1960   -3.2900 C.3   128  ASN128      0.1155
    181  CG        29.7490   66.5020   -4.7730 C.2   128  ASN128      0.2627
    182  OD1       29.4120   65.6910   -5.6260 O.2   128  ASN128     -0.2716
    183  ND2       30.2660   67.6830   -5.0820 N.am  128  ASN128     -0.0877
    184  N         28.3930   62.0610   -6.2780 N.3   130  ARG130     -0.1231
    185  CA        28.7710   62.0500   -7.6840 C.3   130  ARG130      0.1694
    186  C         30.2790   62.2930   -7.7950 C.2   130  ARG130      0.2591
    187  O         30.9760   61.5910   -8.5300 O.2   130  ARG130     -0.2718
    188  CB        27.9920   63.1270   -8.4350 C.3   130  ARG130      0.0321
    189  CG        28.3300   63.2490   -9.9120 C.3   130  ARG130      0.0489
    190  CD        27.3690   64.1920  -10.6190 C.3   130  ARG130      0.2205
    191  NE        27.2240   65.4660   -9.9190 N.pl3 130  ARG130     -0.0865
    192  CZ        26.1550   66.2510  -10.0140 C.cat 130  ARG130      0.5346
    193  NH1       25.1390   65.8960  -10.7850 N.pl3 130  ARG130      0.1354
    194  NH2       26.0800   67.3720   -9.3070 N.pl3 130  ARG130      0.1354
    195  N         30.7830   63.2380   -7.0030 N.am  131  ALA131     -0.1980
    196  CA        32.2050   63.5770   -6.9990 C.3   131  ALA131      0.1597
    197  C         33.0610   62.5600   -6.2430 C.2   131  ALA131      0.2287
    198  O         34.1110   62.1400   -6.7370 O.2   131  ALA131     -0.2864
    199  CB        32.4130   64.9740   -6.4230 C.3   131  ALA131      0.0319
    200  N         32.6580   59.6150   -5.9360 N.3   133  LEU133     -0.1231
    201  CA        32.6700   58.4050   -6.7610 C.3   133  LEU133      0.1693
    202  C         34.0020   58.3700   -7.5250 C.2   133  LEU133      0.2592
    203  O         34.4880   57.3030   -7.9140 O.2   133  LEU133     -0.2718
    204  CB        31.5050   58.4910   -7.7460 C.3   133  LEU133      0.0284
    205  CG        30.5410   57.3350   -8.0100 C.3   133  LEU133      0.0019
    206  CD1       30.2860   56.5130   -6.7650 C.3   133  LEU133      0.0001
    207  CD2       29.2360   57.9150   -8.5510 C.3   133  LEU133      0.0001
    208  N         34.5790   59.5580   -7.7160 N.am  134  LEU134     -0.1966
    209  CA        35.8530   59.7460   -8.4050 C.3   134  LEU134      0.1728
    210  C         36.9990   59.9520   -7.4120 C.2   134  LEU134      0.2616
    211  O         38.0890   59.4200   -7.6020 O.2   134  LEU134     -0.2715
    212  CB        35.7620   60.9570   -9.3370 C.3   134  LEU134      0.0311
    213  CG        37.0550   61.6780   -9.7410 C.3   134  LEU134      0.0022
    214  CD1       37.8940   60.8110  -10.6730 C.3   134  LEU134      0.0001
    215  CD2       36.7130   63.0140  -10.3880 C.3   134  LEU134      0.0001
    216  N         36.7520   60.7270   -6.3580 N.am  135  TYR135     -0.1974
    217  CA        37.7790   61.0020   -5.3580 C.3   135  TYR135      0.1639
    218  C         38.3330   59.7460   -4.6880 C.2   135  TYR135      0.2290
    219  O         39.5260   59.6870   -4.3730 O.2   135  TYR135     -0.2864
    220  CB        37.2580   61.9660   -4.2920 C.3   135  TYR135      0.0560
    221  CG        36.8860   63.3340   -4.8170 C.ar  135  TYR135     -0.0198
    222  CD1       36.0340   64.1700   -4.0980 C.ar  135  TYR135     -0.0009
    223  CD2       37.3770   63.7940   -6.0410 C.ar  135  TYR135     -0.0009
    224  CE1       35.6820   65.4230   -4.5830 C.ar  135  TYR135      0.0417
    225  CE2       37.0260   65.0470   -6.5310 C.ar  135  TYR135      0.0417
    226  CZ        36.1810   65.8510   -5.7970 C.ar  135  TYR135      0.1957
    227  OH        35.8380   67.0910   -6.2730 O.3   135  TYR135     -0.2866
    228  N         38.8660   57.0440   -6.0220 N.3   137  LYS137     -0.1245
    229  CA        39.7650   56.4170   -6.9810 C.3   137  LYS137      0.1561
    230  C         41.1350   57.0920   -7.0210 C.2   137  LYS137      0.2260
    231  O         42.1620   56.4120   -7.0520 O.2   137  LYS137     -0.2867
    232  CB        39.1490   56.4350   -8.3750 C.3   137  LYS137      0.0271
    233  CG        37.9240   55.5680   -8.5010 C.3   137  LYS137      0.0035
    234  CD        37.3150   55.7000   -9.8650 C.3   137  LYS137      0.0206
    235  CE        36.2750   54.6180  -10.0870 C.3   137  LYS137      0.1093
    236  NZ        36.8900   53.2610  -10.1190 N.3   137  LYS137     -0.1314
@<TRIPOS>BOND
     1   130   129    1
     2   130   131    1
     3   129   128    1
     4   104   103    1
     5   128   127    1
     6   127   124    1
     7   103   100    1
     8   100    99    1
     9   100   101    1
    10   126   125    2
    11   124   125    1
    12   124   123    1
    13   101   102    2
    14   101   105   am
    15   125   132   am
    16   119   118    2
    17   108   107    2
    18   123   118   am
    19   105   106    1
    20   118   117    1
    21   132   133    1
    22   140   137    1
    23   136   137    1
    24   136   134   am
    25   107   106    1
    26   107   116   am
    27   133   134    1
    28   137   138    1
    29   134   135    2
    30   106   109    1
    31    97    96    1
    32   117   116    1
    33   117   120    1
    34   120   121    1
    35   120   122    1
    36   109   110    1
    37   138   139    2
    38   138   141   am
    39    94    93    1
    40    94    95    2
    41   110   111    1
    42    96    93    1
    43    96    98    1
    44    93    92    1
    45   141   142    1
    46    89    87   ar
    47    89    90   ar
    48   111   112    1
    49    83    82    2
    50    91    90    1
    51    87    85   ar
    52   112   113    2
    53    92    82   am
    54    90    88   ar
    55    82    81    1
    56   142   143    1
    57   147   146    1
    58   147   148    2
    59   113   115    1
    60   113   114    1
    61   145   143   am
    62   145   146    1
    63   143   144    2
    64    85    84    1
    65    85    86   ar
    66    88    86   ar
    67    84    81    1
    68    81    80    1
    69     1     2    1
    70    80    74   am
    71    78    77    1
    72   193   192    1
    73     2     5    1
    74     2     3    1
    75     5     6    1
    76   214   213    1
    77   190   191    1
    78   190   189    1
    79    74    73    1
    80    74    75    2
    81   215   213    1
    82    77    79    1
    83    77    76    1
    84   236   235    1
    85   235   234    1
    86   192   191    2
    87   192   194    1
    88    73    76    1
    89    73    72    1
    90   189   188    1
    91   234   233    1
    92   213   212    1
    93     3     4    2
    94     6     7   ar
    95     6     8   ar
    96   212   209    1
    97    13    14    1
    98    17    14    1
    99    17    18    1
   100     7     9   ar
   101    67    66    2
   102    72    66   am
   103    14    15    1
   104    66    65    1
   105     8    10   ar
   106   207   205    1
   107   187   186    2
   108   233   232    1
   109   188   185    1
   110   209   208    1
   111   209   210    1
   112   232   229    1
   113    18    19   ar
   114    18    20   ar
   115    19    21   ar
   116    68    65    1
   117    68    69    1
   118   205   204    1
   119   205   206    1
   120     9    11   ar
   121   203   202    2
   122   186   185    1
   123   186   195   am
   124   204   201    1
   125   208   202   am
   126   185   184    1
   127   211   210    2
   128    20    22   ar
   129   202   201    1
   130    65    64    1
   131    10    11   ar
   132   210   216   am
   133    21    23   ar
   134    71    69   ar
   135    69    70   ar
   136    15    24   am
   137    15    16    2
   138    11    12    1
   139   231   230    2
   140   230   229    1
   141   195   196    1
   142   196   199    1
   143   196   197    1
   144   229   228    1
   145    54    52    1
   146    55    53    1
   147   201   200    1
   148   198   197    2
   149    22    23   ar
   150    24    25    1
   151    64    58   am
   152   225   223   ar
   153   225   226   ar
   154    53    52    1
   155   216   217    1
   156   227   226    1
   157   223   221   ar
   158    52    49    1
   159   226   224   ar
   160   182   181    2
   161   217   218    1
   162   217   220    1
   163    58    59    2
   164    58    57    1
   165    49    50    1
   166    49    48    1
   167    30    32   ar
   168    30    29   ar
   169    25    28    1
   170    25    26    1
   171   183   181   am
   172    56    50   am
   173    56    57    1
   174    28    29    1
   175    32    34   ar
   176   221   220    1
   177   221   222   ar
   178   181   180    1
   179    50    51    2
   180   218   219    2
   181    26    27    2
   182    60    57    1
   183    60    61    1
   184   224   222   ar
   185    29    31   ar
   186    39    38    2
   187   162   161   ar
   188   162   160   ar
   189   161   159   ar
   190   160   158   ar
   191    48    38   am
   192   159   156   ar
   193    38    37    1
   194   158   156   ar
   195   158   157   ar
   196    34    35    1
   197    34    33   ar
   198   156   154   ar
   199    61    63   am
   200    61    62    2
   201   157   155   ar
   202   179   178    2
   203   178   177    1
   204   180   177    1
   205    31    33   ar
   206   154   155   ar
   207   154   153    1
   208   177   176    1
   209   153   150    1
   210    36    37    1
   211   174   173    1
   212    37    40    1
   213   173   175    1
   214   173   170    1
   215   166   165    2
   216    40    41    1
   217   150   149    1
   218   150   151    1
   219    43    41   ar
   220    43    45   ar
   221    41    42   ar
   222   170   169    1
   223   170   171    1
   224    45    46   ar
   225   165   169   am
   226   165   164    1
   227    42    44   ar
   228   163   151   am
   229   163   164    1
   230    46    44   ar
   231    46    47    1
   232   151   152    2
   233   171   172    2
   234   164   167    1
   235   168   167    1
