@<TRIPOS>MOLECULE
tmp/1qstA00.pdb
 145 141 0 0 0
SMALL
GASTEIGER

@<TRIPOS>ATOM
      1  N         46.6840   19.5400   17.2650 N.3    28  GLN28      -0.1231
      2  CA        46.0770   20.6490   16.5280 C.3    28  GLN28       0.1698
      3  C         44.6750   21.0010   17.0350 C.2    28  GLN28       0.2592
      4  O         44.1390   22.0620   16.7170 O.2    28  GLN28      -0.2718
      5  CB        46.0320   20.3290   15.0230 C.3    28  GLN28       0.0381
      6  CG        47.3780   20.4800   14.3010 C.3    28  GLN28       0.0905
      7  CD        47.9250   21.8990   14.3600 C.2    28  GLN28       0.2608
      8  OE1       49.0350   22.1350   14.8480 O.2    28  GLN28      -0.2717
      9  NE2       47.1460   22.8520   13.8630 N.am   28  GLN28      -0.0878
     10  N         44.0870   20.1030   17.8200 N.am   29  LEU29      -0.1980
     11  CA        42.7600   20.3140   18.4010 C.3    29  LEU29       0.1596
     12  C         42.8890   20.0120   19.8920 C.2    29  LEU29       0.2287
     13  O         42.3960   18.9940   20.3760 O.2    29  LEU29      -0.2864
     14  CB        41.7340   19.3720   17.7580 C.3    29  LEU29       0.0297
     15  CG        41.7910   19.2200   16.2290 C.3    29  LEU29       0.0022
     16  CD1       40.9400   18.0330   15.7900 C.3    29  LEU29       0.0001
     17  CD2       41.2990   20.4990   15.5650 C.3    29  LEU29       0.0001
     18  N         40.4930   17.2940   10.7320 N.3    78  LEU78      -0.1231
     19  CA        41.3630   17.7250    9.6440 C.3    78  LEU78       0.1693
     20  C         42.4940   18.5500   10.2400 C.2    78  LEU78       0.2592
     21  O         42.2510   19.4490   11.0410 O.2    78  LEU78      -0.2718
     22  CB        40.5800   18.5760    8.6350 C.3    78  LEU78       0.0284
     23  CG        41.3310   19.0570    7.3840 C.3    78  LEU78       0.0019
     24  CD1       40.3370   19.2800    6.2450 C.3    78  LEU78       0.0001
     25  CD2       42.0820   20.3450    7.6910 C.3    78  LEU78       0.0001
     26  N         43.7280   18.2470    9.8640 N.am   79  ALA79      -0.1966
     27  CA        44.8550   19.0100   10.3820 C.3    79  ALA79       0.1728
     28  C         46.1520   18.7540    9.6420 C.2    79  ALA79       0.2616
     29  O         46.3040   17.7580    8.9390 O.2    79  ALA79      -0.2715
     30  CB        45.0500   18.7200   11.8760 C.3    79  ALA79       0.0334
     31  N         47.0800   19.6870    9.8120 N.am   80  VAL80      -0.1977
     32  CA        48.4100   19.6090    9.2330 C.3    80  VAL80       0.1596
     33  C         49.2990   19.9350   10.4220 C.2    80  VAL80       0.2287
     34  O         49.0260   20.8870   11.1540 O.2    80  VAL80      -0.2864
     35  CB        48.6290   20.6710    8.1290 C.3    80  VAL80       0.0276
     36  CG1       50.0580   20.6060    7.6270 C.3    80  VAL80       0.0022
     37  CG2       47.6560   20.4480    6.9900 C.3    80  VAL80       0.0022
     38  N         54.6250   22.0680    9.3590 N.3    84  GLU84      -0.1231
     39  CA        54.4510   21.8120    7.9330 C.3    84  GLU84       0.1699
     40  C         53.3390   22.6830    7.3690 C.2    84  GLU84       0.2592
     41  O         52.8650   22.4540    6.2580 O.2    84  GLU84      -0.2718
     42  CB        54.1200   20.3410    7.6870 C.3    84  GLU84       0.0402
     43  CG        55.2540   19.3890    8.0180 C.3    84  GLU84       0.1161
     44  CD        56.3960   19.4660    7.0270 C.2    84  GLU84       0.3649
     45  OE1       56.3920   20.3730    6.1700 O.co2  84  GLU84      -0.2457
     46  OE2       57.3060   18.6180    7.1050 O.co2  84  GLU84      -0.2457
     47  N         52.9240   23.6870    8.1310 N.am   85  GLN85      -0.1966
     48  CA        51.8550   24.5690    7.6850 C.3    85  GLN85       0.1733
     49  C         52.3490   25.6640    6.7380 C.2    85  GLN85       0.2616
     50  O         53.5510   25.8670    6.5850 O.2    85  GLN85      -0.2715
     51  CB        51.1540   25.1770    8.9010 C.3    85  GLN85       0.0408
     52  CG        50.5430   24.1180    9.8040 C.3    85  GLN85       0.0908
     53  CD        49.5520   24.6830   10.8090 C.2    85  GLN85       0.2608
     54  OE1       48.9380   23.9360   11.5740 O.2    85  GLN85      -0.2717
     55  NE2       49.3900   26.0010   10.8110 N.am   85  GLN85      -0.0878
     56  N         51.4060   26.3550    6.1020 N.am   86  VAL86      -0.1977
     57  CA        51.6940   27.4340    5.1520 C.3    86  VAL86       0.1596
     58  C         52.6570   26.9960    4.0420 C.2    86  VAL86       0.2287
     59  O         53.4720   27.7890    3.5630 O.2    86  VAL86      -0.2864
     60  CB        52.2720   28.6990    5.8670 C.3    86  VAL86       0.0276
     61  CG1       51.6830   29.9570    5.2580 C.3    86  VAL86       0.0022
     62  CG2       51.9450   28.6620    7.3500 C.3    86  VAL86       0.0022
     63  N         51.2550   24.9410    1.4520 N.3    88  GLY88      -0.1210
     64  CA        50.3400   24.4870    0.4160 C.3    88  GLY88       0.1956
     65  C         49.7140   23.1200    0.6140 C.2    88  GLY88       0.2612
     66  O         48.8880   22.6970   -0.1950 O.2    88  GLY88      -0.2717
     67  N         50.0790   22.4360    1.6950 N.am   89  TYR89      -0.1962
     68  CA        49.5580   21.0980    1.9600 C.3    89  TYR89       0.1771
     69  C         48.0790   21.0160    2.3030 C.2    89  TYR89       0.2620
     70  O         47.3970   20.0800    1.8820 O.2    89  TYR89      -0.2715
     71  CB        50.3680   20.4290    3.0720 C.3    89  TYR89       0.0574
     72  CG        51.8340   20.3110    2.7560 C.ar   89  TYR89      -0.0198
     73  CD1       52.7880   20.4160    3.7620 C.ar   89  TYR89      -0.0009
     74  CD2       52.2720   20.1140    1.4490 C.ar   89  TYR89      -0.0009
     75  CE1       54.1430   20.3300    3.4790 C.ar   89  TYR89       0.0417
     76  CE2       53.6250   20.0270    1.1540 C.ar   89  TYR89       0.0417
     77  CZ        54.5550   20.1370    2.1720 C.ar   89  TYR89       0.1957
     78  OH        55.8960   20.0610    1.8920 O.3    89  TYR89      -0.2866
     79  N         47.5820   21.9850    3.0650 N.am   90  GLY90      -0.1940
     80  CA        46.1820   21.9770    3.4450 C.3    90  GLY90       0.2014
     81  C         45.2400   21.9850    2.2560 C.2    90  GLY90       0.2639
     82  O         44.2550   21.2440    2.2220 O.2    90  GLY90      -0.2714
     83  N         45.5380   22.8280    1.2760 N.am   91  THR91      -0.1950
     84  CA        44.7020   22.9170    0.0890 C.3    91  THR91       0.1897
     85  C         44.8440   21.6690   -0.7650 C.2    91  THR91       0.2313
     86  O         43.8480   21.1270   -1.2390 O.2    91  THR91      -0.2863
     87  CB        45.0650   24.1410   -0.7650 C.3    91  THR91       0.1794
     88  OG1       44.6940   25.3300   -0.0580 O.3    91  THR91      -0.2208
     89  CG2       44.3300   24.0970   -2.1070 C.3    91  THR91       0.0378
     90  N         36.1610   24.1150   13.4960 N.3   114  ASP114     -0.1239
     91  CA        36.9400   24.3880   14.6980 C.3   114  ASP114      0.1674
     92  C         36.9730   25.8650   15.1190 C.2   114  ASP114      0.2266
     93  O         37.5720   26.2060   16.1400 O.2   114  ASP114     -0.2867
     94  CB        38.3700   23.8650   14.4730 C.3   114  ASP114      0.1410
     95  CG        39.3500   24.3370   15.5320 C.2   114  ASP114      0.3668
     96  OD1       40.4460   24.8170   15.1680 O.co2 114  ASP114     -0.2456
     97  OD2       39.0260   24.2240   16.7310 O.co2 114  ASP114     -0.2456
     98  N         38.7000   28.0300   14.5760 N.3   116  PHE116     -0.1227
     99  CA        40.0590   28.4580   14.2870 C.3   116  PHE116      0.1736
    100  C         40.3450   27.8890   12.8980 C.2   116  PHE116      0.2595
    101  O         41.4170   28.0890   12.3250 O.2   116  PHE116     -0.2718
    102  CB        41.0240   27.8510   15.3050 C.3   116  PHE116      0.0547
    103  CG        42.2500   28.6750   15.5430 C.ar  116  PHE116     -0.0202
    104  CD1       42.4100   29.3780   16.7360 C.ar  116  PHE116     -0.0042
    105  CD2       43.2520   28.7510   14.5760 C.ar  116  PHE116     -0.0042
    106  CE1       43.5500   30.1470   16.9650 C.ar  116  PHE116     -0.0003
    107  CE2       44.4000   29.5170   14.7920 C.ar  116  PHE116     -0.0003
    108  CZ        44.5490   30.2170   15.9910 C.ar  116  PHE116     -0.0000
    109  N         39.3530   27.1740   12.3710 N.am  117  ALA117     -0.1980
    110  CA        39.4520   26.5400   11.0670 C.3   117  ALA117      0.1597
    111  C         38.4110   27.0580   10.0730 C.2   117  ALA117      0.2287
    112  O         38.4420   26.6940    8.8970 O.2   117  ALA117     -0.2864
    113  CB        39.3050   25.0350   11.2260 C.3   117  ALA117      0.0319
    114  N         39.7280   28.4880    6.9910 N.3   120  TYR120     -0.1227
    115  CA        40.2710   27.4670    6.0970 C.3   120  TYR120      0.1736
    116  C         39.1730   26.8180    5.2600 C.2   120  TYR120      0.2595
    117  O         39.2990   26.7070    4.0440 O.2   120  TYR120     -0.2718
    118  CB        41.0150   26.3870    6.8970 C.3   120  TYR120      0.0548
    119  CG        41.3240   25.1260    6.1050 C.ar  120  TYR120     -0.0200
    120  CD1       42.4040   25.0790    5.2120 C.ar  120  TYR120     -0.0009
    121  CD2       40.5320   23.9840    6.2410 C.ar  120  TYR120     -0.0009
    122  CE1       42.6840   23.9270    4.4750 C.ar  120  TYR120      0.0417
    123  CE2       40.8020   22.8270    5.5100 C.ar  120  TYR120      0.0417
    124  CZ        41.8770   22.8040    4.6290 C.ar  120  TYR120      0.1957
    125  OH        42.1400   21.6560    3.9110 O.3   120  TYR120     -0.2866
    126  N         38.0970   26.3940    5.9130 N.am  121  PHE121     -0.1976
    127  CA        37.0000   25.7510    5.2050 C.3   121  PHE121      0.1639
    128  C         36.3050   26.7080    4.2380 C.2   121  PHE121      0.2290
    129  O         35.8360   26.2890    3.1780 O.2   121  PHE121     -0.2864
    130  CB        36.0080   25.1610    6.2080 C.3   121  PHE121      0.0560
    131  CG        36.5120   23.9100    6.8720 C.ar  121  PHE121     -0.0200
    132  CD1       36.8390   23.9030    8.2270 C.ar  121  PHE121     -0.0042
    133  CD2       36.6980   22.7450    6.1320 C.ar  121  PHE121     -0.0042
    134  CE1       37.3460   22.7510    8.8330 C.ar  121  PHE121     -0.0003
    135  CE2       37.2040   21.5860    6.7260 C.ar  121  PHE121     -0.0003
    136  CZ        37.5290   21.5890    8.0780 C.ar  121  PHE121     -0.0000
    137  N         37.8110   28.9930    2.7200 N.3   123  LYS123     -0.1245
    138  CA        38.8240   29.0460    1.6790 C.3   123  LYS123      0.1561
    139  C         38.7340   27.8160    0.7720 C.2   123  LYS123      0.2260
    140  O         39.0020   27.9010   -0.4310 O.2   123  LYS123     -0.2867
    141  CB        40.2020   29.1230    2.3380 C.3   123  LYS123      0.0271
    142  CG        41.3730   29.1020    1.3900 C.3   123  LYS123      0.0035
    143  CD        42.6390   28.6880    2.1280 C.3   123  LYS123      0.0206
    144  CE        43.7910   29.6530    1.8740 C.3   123  LYS123      0.1093
    145  NZ        45.1160   28.9590    1.8280 N.3   123  LYS123     -0.1314
@<TRIPOS>BOND
     1    89    87    1
     2    86    85    2
     3    85    84    1
     4    87    88    1
     5    87    84    1
     6   140   139    2
     7    66    65    2
     8    84    83    1
     9    64    65    1
    10    64    63    1
    11    65    67   am
    12   139   138    1
    13    76    74   ar
    14    76    77   ar
    15    83    81   am
    16   142   143    1
    17   142   141    1
    18    74    72   ar
    19   138   141    1
    20   138   137    1
    21    67    68    1
    22   145   144    1
    23   144   143    1
    24    70    69    2
    25    78    77    1
    26    68    69    1
    27    68    71    1
    28    77    75   ar
    29    82    81    2
    30    81    80    1
    31    69    79   am
    32    72    71    1
    33    72    73   ar
    34    79    80    1
    35   129   128    2
    36    75    73   ar
    37    59    58    2
    38   125   124    1
    39    58    57    1
    40   117   116    2
    41   128   127    1
    42   122   124   ar
    43   122   120   ar
    44   124   123   ar
    45    57    60    1
    46    57    56    1
    47   127   126    1
    48   127   130    1
    49   120   119   ar
    50    61    60    1
    51   116   126   am
    52   116   115    1
    53   123   121   ar
    54    60    62    1
    55   115   118    1
    56   115   114    1
    57    56    49   am
    58   119   121   ar
    59   119   118    1
    60   133   135   ar
    61   133   131   ar
    62    45    44   ar
    63   130   131    1
    64    24    23    1
    65    41    40    2
    66    50    49    2
    67   135   136   ar
    68    49    48    1
    69   131   132   ar
    70    37    35    1
    71    44    46   ar
    72    44    43    1
    73    40    39    1
    74    40    47   am
    75    23    25    1
    76    23    22    1
    77    36    35    1
    78    48    47    1
    79    48    51    1
    80    42    39    1
    81    42    43    1
    82    39    38    1
    83   136   134   ar
    84    35    32    1
    85   132   134   ar
    86    22    19    1
    87   112   111    2
    88    51    52    1
    89    29    28    2
    90    32    31    1
    91    32    33    1
    92    28    31   am
    93    28    27    1
    94    19    20    1
    95    19    18    1
    96    52    53    1
    97    26    20   am
    98    26    27    1
    99   111   110    1
   100    20    21    2
   101    27    30    1
   102    33    34    2
   103    53    55   am
   104    53    54    2
   105   110   113    1
   106   110   109    1
   107   101   100    2
   108   109   100   am
   109   100    99    1
   110    90    91    1
   111     9     7   am
   112    99    98    1
   113    99   102    1
   114     6     7    1
   115     6     5    1
   116     7     8    2
   117    94    91    1
   118    94    95    1
   119   105   107   ar
   120   105   103   ar
   121    91    92    1
   122   107   108   ar
   123     5     2    1
   124    92    93    2
   125    96    95   ar
   126   102   103    1
   127    95    97   ar
   128   103   104   ar
   129    17    15    1
   130    16    15    1
   131   108   106   ar
   132    15    14    1
   133     2     3    1
   134     2     1    1
   135     4     3    2
   136   104   106   ar
   137     3    10   am
   138    14    11    1
   139    10    11    1
   140    11    12    1
   141    12    13    2
