@<TRIPOS>MOLECULE
tmp/1qt8A00.pdb
 85 80 0 0 0
SMALL
GASTEIGER

@<TRIPOS>ATOM
      1  N         39.0280    0.9520   11.3500 N.3     3  ILE3       -0.1231
      2  CA        38.5260    2.3320   11.4050 C.3     3  ILE3        0.1692
      3  C         39.3400    3.3130   12.2760 C.2     3  ILE3        0.2592
      4  O         39.5390    4.4990   11.9590 O.2     3  ILE3       -0.2718
      5  CB        37.0070    2.3670   11.6800 C.3     3  ILE3        0.0266
      6  CG1       36.4810    3.8040   11.6140 C.3     3  ILE3        0.0019
      7  CG2       36.7090    1.7530   13.0550 C.3     3  ILE3        0.0020
      8  CD1       36.5040    4.4650   10.2020 C.3     3  ILE3        0.0001
      9  N         39.8290    2.8590   13.4380 N.am    4  PHE4       -0.1976
     10  CA        40.6080    3.7310   14.3140 C.3     4  PHE4        0.1639
     11  C         41.9100    4.0300   13.6560 C.2     4  PHE4        0.2290
     12  O         42.3550    5.1670   13.6910 O.2     4  PHE4       -0.2864
     13  CB        40.9820    3.0720   15.6520 C.3     4  PHE4        0.0560
     14  CG        39.7290    3.0540   16.5110 C.ar    4  PHE4       -0.0200
     15  CD1       38.8920    1.9290   16.4790 C.ar    4  PHE4       -0.0042
     16  CD2       39.3760    4.1540   17.2970 C.ar    4  PHE4       -0.0042
     17  CE1       37.7210    1.8530   17.2330 C.ar    4  PHE4       -0.0003
     18  CE2       38.2070    4.1140   18.0520 C.ar    4  PHE4       -0.0003
     19  CZ        37.4070    2.9680   18.0220 C.ar    4  PHE4       -0.0000
     20  N         37.6420    7.4570   21.0080 N.3    68  ASN68      -0.1240
     21  CA        36.7710    6.3610   21.1730 C.3    68  ASN68       0.1653
     22  C         35.3590    6.8490   21.3320 C.2    68  ASN68       0.2266
     23  O         34.4810    6.1980   20.8120 O.2    68  ASN68      -0.2867
     24  CB        36.9980    5.8650   22.5910 C.3    68  ASN68       0.1155
     25  CG        38.0630    4.8390   22.6070 C.2    68  ASN68       0.2627
     26  OD1       38.1260    4.1210   21.6430 O.2    68  ASN68      -0.2716
     27  ND2       38.9380    4.7870   23.6070 N.am   68  ASN68      -0.0877
     28  N         34.1530    7.8330   17.6860 N.3    71  VAL71      -0.1231
     29  CA        33.9690    6.7550   16.7160 C.3    71  VAL71       0.1692
     30  C         32.6190    6.1790   17.0290 C.2    71  VAL71       0.2592
     31  O         31.7590    5.9860   16.1690 O.2    71  VAL71      -0.2718
     32  CB        35.1030    5.6930   16.7240 C.3    71  VAL71       0.0266
     33  CG1       34.7560    4.4340   15.9320 C.3    71  VAL71       0.0020
     34  CG2       36.3710    6.3350   16.1450 C.3    71  VAL71       0.0020
     35  N         32.4800    5.8960   18.3070 N.am   72  ASP72      -0.1974
     36  CA        31.2180    5.3320   18.8260 C.3    72  ASP72       0.1709
     37  C         29.9990    6.1430   18.3730 C.2    72  ASP72       0.2293
     38  O         28.9640    5.6350   17.8620 O.2    72  ASP72      -0.2864
     39  CB        31.3140    5.1180   20.3700 C.3    72  ASP72       0.1436
     40  CG        30.3140    4.1030   20.9520 C.2    72  ASP72       0.3671
     41  OD1       29.2510    4.3400   21.4830 O.co2  72  ASP72      -0.2456
     42  OD2       30.6470    2.8710   20.7000 O.co2  72  ASP72      -0.2456
     43  N         29.1970    5.7480   14.4950 N.3    75  VAL75      -0.1245
     44  CA        28.4840    4.5410   14.1450 C.3    75  VAL75       0.1561
     45  C         27.0060    4.5980   14.5210 C.2    75  VAL75       0.2260
     46  O         26.1370    4.1780   13.7510 O.2    75  VAL75      -0.2867
     47  CB        29.1910    3.3260   14.7380 C.3    75  VAL75       0.0252
     48  CG1       28.4080    2.0160   14.4650 C.3    75  VAL75       0.0019
     49  CG2       30.5890    3.1660   14.1490 C.3    75  VAL75       0.0019
     50  N         24.6450    1.5130    4.8340 N.3    88  TYR88      -0.1241
     51  CA        25.6560    0.8180    5.6110 C.3    88  TYR88       0.1605
     52  C         25.3700   -0.6510    5.7590 C.2    88  TYR88       0.2264
     53  O         26.2850   -1.4660    5.7670 O.2    88  TYR88      -0.2867
     54  CB        25.6400    1.4320    7.0070 C.3    88  TYR88       0.0534
     55  CG        26.6120    0.9180    8.0410 C.ar   88  TYR88      -0.0201
     56  CD1       26.3330   -0.1750    8.8710 C.ar   88  TYR88      -0.0009
     57  CD2       27.8030    1.6170    8.1610 C.ar   88  TYR88      -0.0009
     58  CE1       27.2470   -0.6170    9.8250 C.ar   88  TYR88       0.0417
     59  CE2       28.7240    1.1950    9.1160 C.ar   88  TYR88       0.0417
     60  CZ        28.4300    0.1150    9.9420 C.ar   88  TYR88       0.1957
     61  OH        29.3940   -0.2120   10.8420 O.3    88  TYR88      -0.2866
     62  N         32.1280   -0.1090    4.8080 N.3    96  ARG96      -0.1231
     63  CA        31.4710    0.4830    6.0010 C.3    96  ARG96       0.1694
     64  C         32.4020    1.5130    6.6940 C.2    96  ARG96       0.2591
     65  O         32.0410    2.6220    7.1250 O.2    96  ARG96      -0.2718
     66  CB        31.1020   -0.6140    6.9810 C.3    96  ARG96       0.0321
     67  CG        29.9760   -1.4390    6.4370 C.3    96  ARG96       0.0489
     68  CD        29.3290   -2.2630    7.5510 C.3    96  ARG96       0.2205
     69  NE        28.1950   -3.0120    6.9670 N.pl3  96  ARG96      -0.0865
     70  CZ        27.6090   -4.1060    7.4280 C.cat  96  ARG96       0.5346
     71  NH1       27.9660   -4.6270    8.5660 N.pl3  96  ARG96       0.1354
     72  NH2       26.6140   -4.6960    6.7740 N.pl3  96  ARG96       0.1354
     73  N         33.6970    1.1300    6.7490 N.am   97  ALA97      -0.1980
     74  CA        34.7180    1.9640    7.3320 C.3    97  ALA97       0.1597
     75  C         34.7920    3.2620    6.5720 C.2    97  ALA97       0.2287
     76  O         34.9330    4.2980    7.2040 O.2    97  ALA97      -0.2864
     77  CB        36.0820    1.3070    7.3640 C.3    97  ALA97       0.0319
     78  N         31.8570    5.5670    7.6890 N.3   100  ILE100     -0.1245
     79  CA        32.0210    6.0240    9.0790 C.3   100  ILE100      0.1561
     80  C         32.9930    7.1890    8.9930 C.2   100  ILE100      0.2260
     81  O         32.7710    8.1980    9.6220 O.2   100  ILE100     -0.2867
     82  CB        32.4220    4.8680   10.0890 C.3   100  ILE100      0.0252
     83  CG1       31.4710    3.6380   10.2780 C.3   100  ILE100      0.0019
     84  CG2       32.9580    5.3700   11.4290 C.3   100  ILE100      0.0019
     85  CD1       32.1670    2.4800   10.9850 C.3   100  ILE100      0.0001
@<TRIPOS>BOND
     1    62    63    1
     2    50    51    1
     3    51    52    1
     4    51    54    1
     5    52    53    2
     6    63    64    1
     7    63    66    1
     8    67    66    1
     9    67    68    1
    10    75    76    2
    11    75    74    1
    12    64    73   am
    13    64    65    2
    14    73    74    1
    15    72    70    1
    16    69    70    2
    17    69    68    1
    18    54    55    1
    19    74    77    1
    20    70    71    1
    21    78    79    1
    22    55    57   ar
    23    55    56   ar
    24    57    59   ar
    25    56    58   ar
    26    80    79    1
    27    80    81    2
    28    79    82    1
    29    59    60   ar
    30    58    60   ar
    31    60    61    1
    32    82    83    1
    33    82    84    1
    34     8     6    1
    35    83    85    1
    36     1     2    1
    37     2     5    1
    38     2     3    1
    39     6     5    1
    40     5     7    1
    41     4     3    2
    42     3     9   am
    43     9    10    1
    44    11    12    2
    45    11    10    1
    46    46    45    2
    47    44    43    1
    48    44    45    1
    49    44    47    1
    50    49    47    1
    51    10    13    1
    52    48    47    1
    53    13    14    1
    54    33    32    1
    55    34    32    1
    56    31    30    2
    57    15    14   ar
    58    15    17   ar
    59    14    16   ar
    60    29    32    1
    61    29    30    1
    62    29    28    1
    63    30    35   am
    64    17    19   ar
    65    16    18   ar
    66    38    37    2
    67    19    18   ar
    68    35    36    1
    69    37    36    1
    70    36    39    1
    71    39    40    1
    72    42    40   ar
    73    23    22    2
    74    40    41   ar
    75    20    21    1
    76    21    22    1
    77    21    24    1
    78    26    25    2
    79    24    25    1
    80    25    27   am
