@<TRIPOS>MOLECULE
tmp/1qteA00.pdb
 96 91 0 0 0
SMALL
GASTEIGER

@<TRIPOS>ATOM
      1  N          0.2350   46.7560   49.7780 N.3   477  GLN477     -0.1231
      2  CA         1.3970   45.9390   50.1280 C.3   477  GLN477      0.1698
      3  C          2.5850   46.8090   50.5330 C.2   477  GLN477      0.2592
      4  O          3.2730   46.5170   51.5110 O.2   477  GLN477     -0.2718
      5  CB         1.7900   45.0480   48.9400 C.3   477  GLN477      0.0381
      6  CG         3.1710   44.3850   49.0450 C.3   477  GLN477      0.0905
      7  CD         3.2920   43.3830   50.1790 C.2   477  GLN477      0.2608
      8  OE1        2.3040   42.7870   50.6200 O.2   477  GLN477     -0.2717
      9  NE2        4.5150   43.1910   50.6590 N.am  477  GLN477     -0.0878
     10  N          2.8080   47.8860   49.7830 N.am  478  GLU478     -0.1966
     11  CA         3.9290   48.7730   50.0390 C.3   478  GLU478      0.1733
     12  C          3.9000   49.5770   51.3370 C.2   478  GLU478      0.2617
     13  O          4.8630   49.5590   52.1050 O.2   478  GLU478     -0.2715
     14  CB         4.1080   49.7550   48.8670 C.3   478  GLU478      0.0429
     15  CG         4.5550   49.1170   47.5410 C.3   478  GLU478      0.1163
     16  CD         5.9910   48.5860   47.5690 C.2   478  GLU478      0.3649
     17  OE1        6.6470   48.6350   48.6260 O.co2 478  GLU478     -0.2457
     18  OE2        6.4710   48.1110   46.5170 O.co2 478  GLU478     -0.2457
     19  N          2.7780   50.2410   51.6000 N.am  479  SER479     -0.1950
     20  CA         2.6800   51.1270   52.7630 C.3   479  SER479      0.1924
     21  C          1.6100   50.8530   53.8070 C.2   479  SER479      0.2314
     22  O          1.5500   51.5720   54.8090 O.2   479  SER479     -0.2863
     23  CB         2.4340   52.5420   52.2560 C.3   479  SER479      0.2116
     24  OG         1.1740   52.5970   51.5970 O.3   479  SER479     -0.2180
     25  N          5.0360   57.0670   55.4700 N.3   485  VAL485     -0.1231
     26  CA         6.0410   56.0780   55.8340 C.3   485  VAL485      0.1692
     27  C          7.2390   56.0200   54.8850 C.2   485  VAL485      0.2592
     28  O          7.1050   56.2180   53.6770 O.2   485  VAL485     -0.2718
     29  CB         5.4030   54.6700   56.0200 C.3   485  VAL485      0.0266
     30  CG1        5.0630   54.0360   54.6870 C.3   485  VAL485      0.0020
     31  CG2        6.3110   53.7730   56.8590 C.3   485  VAL485      0.0020
     32  N          8.4200   55.8120   55.4630 N.am  486  LYS486     -0.1966
     33  CA         9.6630   55.6910   54.7050 C.3   486  LYS486      0.1728
     34  C         10.3850   54.4500   55.2110 C.2   486  LYS486      0.2617
     35  O         10.4210   54.1940   56.4210 O.2   486  LYS486     -0.2715
     36  CB        10.5500   56.9250   54.9000 C.3   486  LYS486      0.0311
     37  CG         9.9930   58.1890   54.2850 C.3   486  LYS486      0.0038
     38  CD        10.8720   59.4140   54.5540 C.3   486  LYS486      0.0206
     39  CE        12.2460   59.2990   53.8990 C.3   486  LYS486      0.1093
     40  NZ        13.0640   60.5270   54.1420 N.3   486  LYS486     -0.1314
     41  N         10.9150   53.6480   54.2920 N.am  487  SER487     -0.1936
     42  CA        11.6310   52.4330   54.6770 C.3   487  SER487      0.2040
     43  C         13.0510   52.8110   55.1170 C.2   487  SER487      0.2485
     44  O         13.4620   53.9590   54.9710 O.2   487  SER487     -0.2729
     45  CB        11.6670   51.4440   53.5100 C.3   487  SER487      0.2129
     46  OG        12.5220   51.9020   52.4820 O.3   487  SER487     -0.2179
     47  N         13.8010   51.8610   55.7050 N.am  488  PRO488     -0.2726
     48  CA        15.1670   52.1870   56.1390 C.3   488  PRO488      0.1402
     49  C         16.0480   52.6590   54.9810 C.2   488  PRO488      0.2269
     50  O         16.8830   53.5580   55.1500 O.2   488  PRO488     -0.2865
     51  CB        15.6690   50.8660   56.7160 C.3   488  PRO488      0.0296
     52  CG        14.4080   50.1770   57.1720 C.3   488  PRO488      0.0237
     53  CD        13.4510   50.4730   56.0570 C.3   488  PRO488      0.0939
     54  N         12.7040   54.3940   50.7040 N.3   491  ALA491     -0.1245
     55  CA        11.5130   54.3000   49.8460 C.3   491  ALA491      0.1562
     56  C         10.4310   55.1330   50.5320 C.2   491  ALA491      0.2260
     57  O         10.2260   54.9980   51.7340 O.2   491  ALA491     -0.2867
     58  CB        11.0790   52.8600   49.7000 C.3   491  ALA491      0.0290
     59  N          5.7950   53.5320   48.0830 N.3   496  GLN496     -0.1245
     60  CA         7.1930   53.3090   48.4390 C.3   496  GLN496      0.1566
     61  C          8.1490   53.5360   47.2750 C.2   496  GLN496      0.2260
     62  O          8.8510   52.6270   46.8290 O.2   496  GLN496     -0.2867
     63  CB         7.3400   51.9010   49.0190 C.3   496  GLN496      0.0367
     64  CG         6.7310   51.7860   50.4240 C.3   496  GLN496      0.0905
     65  CD         7.5520   52.5360   51.4590 C.2   496  GLN496      0.2608
     66  OE1        8.5610   52.0340   51.9420 O.2   496  GLN496     -0.2717
     67  NE2        7.1390   53.7570   51.7790 N.am  496  GLN496     -0.0878
     68  N          9.1020   45.4150   42.4730 N.3   553  ASN553     -0.1240
     69  CA         9.8560   45.0870   43.6820 C.3   553  ASN553      0.1653
     70  C         11.3560   44.8130   43.4790 C.2   553  ASN553      0.2266
     71  O         12.1920   45.3450   44.2130 O.2   553  ASN553     -0.2867
     72  CB         9.1920   43.8950   44.3900 C.3   553  ASN553      0.1155
     73  CG         9.8790   43.5190   45.7010 C.2   553  ASN553      0.2627
     74  OD1       10.5110   42.4750   45.7970 O.2   553  ASN553     -0.2716
     75  ND2        9.7520   44.3770   46.7140 N.am  553  ASN553     -0.0877
     76  N         11.6610   37.7190   49.3080 N.3   583  GLU583     -0.1245
     77  CA        10.9030   38.9700   49.4360 C.3   583  GLU583      0.1567
     78  C          9.9900   39.1820   48.2260 C.2   583  GLU583      0.2260
     79  O          8.8070   39.4800   48.3760 O.2   583  GLU583     -0.2867
     80  CB        11.8360   40.1890   49.5610 C.3   583  GLU583      0.0388
     81  CG        11.0810   41.5350   49.5860 C.3   583  GLU583      0.1160
     82  CD        11.9950   42.7670   49.5400 C.2   583  GLU583      0.3649
     83  OE1       13.1760   42.6620   49.9420 O.co2 583  GLU583     -0.2457
     84  OE2       11.5290   43.8470   49.1030 O.co2 583  GLU583     -0.2457
     85  N          6.0040   39.0390   47.9400 N.3   587  TYR587     -0.1241
     86  CA         5.4180   40.2910   47.4530 C.3   587  TYR587      0.1605
     87  C          4.4050   39.9930   46.3440 C.2   587  TYR587      0.2264
     88  O          3.2830   40.4840   46.3740 O.2   587  TYR587     -0.2867
     89  CB         6.5310   41.2060   46.9300 C.3   587  TYR587      0.0534
     90  CG         6.0900   42.5680   46.4210 C.ar  587  TYR587     -0.0201
     91  CD1        5.6360   42.7320   45.1120 C.ar  587  TYR587     -0.0009
     92  CD2        6.1730   43.6970   47.2340 C.ar  587  TYR587     -0.0009
     93  CE1        5.2780   43.9950   44.6210 C.ar  587  TYR587      0.0417
     94  CE2        5.8160   44.9700   46.7560 C.ar  587  TYR587      0.0417
     95  CZ         5.3730   45.1070   45.4500 C.ar  587  TYR587      0.1957
     96  OH         5.0330   46.3430   44.9600 O.3   587  TYR587     -0.2866
@<TRIPOS>BOND
     1    68    69    1
     2    70    69    1
     3    70    71    2
     4    69    72    1
     5    72    73    1
     6    93    91   ar
     7    93    95   ar
     8    96    95    1
     9    91    90   ar
    10    95    94   ar
    11    73    74    2
    12    73    75   am
    13    87    88    2
    14    87    86    1
    15    90    89    1
    16    90    92   ar
    17    18    16   ar
    18    94    92   ar
    19    62    61    2
    20    89    86    1
    21    61    60    1
    22    86    85    1
    23    15    16    1
    24    15    14    1
    25    16    17   ar
    26    59    60    1
    27    78    79    2
    28    78    77    1
    29    60    63    1
    30    14    11    1
    31     5     6    1
    32     5     2    1
    33    63    64    1
    34     6     7    1
    35    84    82   ar
    36    76    77    1
    37    77    80    1
    38    82    81    1
    39    82    83   ar
    40    80    81    1
    41    58    55    1
    42     1     2    1
    43    10    11    1
    44    10     3   am
    45    55    56    1
    46    55    54    1
    47    11    12    1
    48     2     3    1
    49     7     8    2
    50     7     9   am
    51    64    65    1
    52    56    57    2
    53     3     4    2
    54    12    19   am
    55    12    13    2
    56    65    67   am
    57    65    66    2
    58    24    23    1
    59    19    20    1
    60    23    20    1
    61    46    45    1
    62    20    21    1
    63    45    42    1
    64    28    27    2
    65    21    22    2
    66    39    40    1
    67    39    38    1
    68    37    38    1
    69    37    36    1
    70    41    42    1
    71    41    34   am
    72    42    43    1
    73    30    29    1
    74    33    36    1
    75    33    34    1
    76    33    32    1
    77    27    32   am
    78    27    26    1
    79    44    43    2
    80    49    50    2
    81    49    48    1
    82    43    47   am
    83    34    35    2
    84    25    26    1
    85    47    53    1
    86    47    48    1
    87    26    29    1
    88    29    31    1
    89    53    52    1
    90    48    51    1
    91    51    52    1
