@<TRIPOS>MOLECULE
tmp/1qtiA00.pdb
 189 186 0 0 0
SMALL
GASTEIGER

@<TRIPOS>ATOM
      1  N         -4.4030   67.6680   69.4200 N.3    69  ASP69      -0.1239
      2  CA        -3.3720   67.7710   70.4330 C.3    69  ASP69       0.1674
      3  C         -3.7550   68.7620   71.5150 C.2    69  ASP69       0.2266
      4  O         -4.0580   69.9190   71.2340 O.2    69  ASP69      -0.2867
      5  CB        -2.0630   68.2090   69.7880 C.3    69  ASP69       0.1410
      6  CG        -0.9340   68.2780   70.7740 C.2    69  ASP69       0.3668
      7  OD1       -1.0700   67.6920   71.8660 O.co2  69  ASP69      -0.2456
      8  OD2        0.0890   68.9160   70.4620 O.co2  69  ASP69      -0.2456
      9  N          2.5290   74.2150   69.5530 N.3    78  SER78      -0.1217
     10  CA         1.8240   72.9630   69.2950 C.3    78  SER78       0.1889
     11  C          0.4680   73.1500   68.6120 C.2    78  SER78       0.2288
     12  O          0.0740   72.3410   67.7720 O.2    78  SER78      -0.2866
     13  CB         1.6510   72.1760   70.6040 C.3    78  SER78       0.2089
     14  OG         0.5290   72.6250   71.3430 O.3    78  SER78      -0.2183
     15  N         -0.2250   73.2010   64.6360 N.3    81  TRP81      -0.1241
     16  CA        -0.3820   72.0150   63.8060 C.3    81  TRP81       0.1605
     17  C         -1.8000   71.5090   63.9420 C.2    81  TRP81       0.2264
     18  O         -2.2100   70.5920   63.2410 O.2    81  TRP81      -0.2867
     19  CB         0.5820   70.9170   64.2540 C.3    81  TRP81       0.0550
     20  CG         2.0130   71.3510   64.2920 C.ar   81  TRP81       0.0003
     21  CD1        2.7260   71.7240   65.3940 C.ar   81  TRP81       0.0946
     22  CD2        2.9090   71.4570   63.1760 C.ar   81  TRP81       0.0152
     23  NE1        4.0130   72.0560   65.0350 N.ar   81  TRP81      -0.2442
     24  CE2        4.1520   71.9000   63.6800 C.ar   81  TRP81       0.0810
     25  CE3        2.7830   71.2190   61.8000 C.ar   81  TRP81       0.0012
     26  CZ2        5.2650   72.1100   62.8540 C.ar   81  TRP81       0.0191
     27  CZ3        3.8890   71.4290   60.9820 C.ar   81  TRP81       0.0001
     28  CH2        5.1130   71.8700   61.5140 C.ar   81  TRP81       0.0015
     29  N          1.8310   66.4840   56.5020 N.3   114  GLY114     -0.1210
     30  CA         2.1480   65.3550   57.3600 C.3   114  GLY114      0.1956
     31  C          1.2250   65.3150   58.5700 C.2   114  GLY114      0.2612
     32  O          0.1230   65.8790   58.5480 O.2   114  GLY114     -0.2717
     33  N          1.6760   64.6580   59.6330 N.am  115  GLY115     -0.1942
     34  CA         0.8650   64.5480   60.8270 C.3   115  GLY115      0.2014
     35  C          0.6820   63.1000   61.2330 C.2   115  GLY115      0.2639
     36  O         -0.3810   62.7140   61.7250 O.2   115  GLY115     -0.2714
     37  N          1.7210   62.2980   61.0050 N.am  116  GLY116     -0.1954
     38  CA         1.6930   60.8910   61.3660 C.3   116  GLY116      0.1869
     39  C          0.5970   60.0310   60.7670 C.2   116  GLY116      0.2309
     40  O          0.3550   58.9280   61.2480 O.2   116  GLY116     -0.2863
     41  N         -2.3530   60.3960   61.0790 N.3   118  TYR118     -0.1227
     42  CA        -3.5130   60.4640   61.9700 C.3   118  TYR118      0.1736
     43  C         -4.0140   61.8930   62.1470 C.2   118  TYR118      0.2596
     44  O         -5.0870   62.1200   62.7110 O.2   118  TYR118     -0.2718
     45  CB        -3.1840   59.8500   63.3400 C.3   118  TYR118      0.0548
     46  CG        -2.3150   60.7140   64.2370 C.ar  118  TYR118     -0.0200
     47  CD1       -2.8640   61.7670   64.9750 C.ar  118  TYR118     -0.0009
     48  CD2       -0.9480   60.4670   64.3580 C.ar  118  TYR118     -0.0009
     49  CE1       -2.0770   62.5490   65.8100 C.ar  118  TYR118      0.0417
     50  CE2       -0.1490   61.2420   65.1920 C.ar  118  TYR118      0.0417
     51  CZ        -0.7200   62.2810   65.9150 C.ar  118  TYR118      0.1957
     52  OH         0.0700   63.0500   66.7380 O.3   118  TYR118     -0.2866
     53  N         -3.2310   62.8550   61.6690 N.am  119  SER119     -0.1938
     54  CA        -3.6050   64.2600   61.7650 C.3   119  SER119      0.2055
     55  C         -2.9970   65.0080   60.5980 C.2   119  SER119      0.2643
     56  O         -2.1710   64.4570   59.8740 O.2   119  SER119     -0.2714
     57  CB        -3.1050   64.8630   63.0810 C.3   119  SER119      0.2130
     58  OG        -1.6950   64.7650   63.1940 O.3   119  SER119     -0.2179
     59  N         -3.3980   66.2640   60.4270 N.am  120  GLY120     -0.1954
     60  CA        -2.8910   67.0680   59.3250 C.3   120  GLY120      0.1869
     61  C         -3.9540   67.9600   58.6850 C.2   120  GLY120      0.2309
     62  O         -5.1280   67.5970   58.5990 O.2   120  GLY120     -0.2863
     63  N         -3.3380   74.8480   57.3910 N.3   124  LEU124     -0.1245
     64  CA        -2.4430   75.3570   58.4370 C.3   124  LEU124      0.1561
     65  C         -1.7160   76.6290   58.0010 C.2   124  LEU124      0.2260
     66  O         -1.3510   76.7820   56.8340 O.2   124  LEU124     -0.2867
     67  CB        -1.3920   74.3050   58.8200 C.3   124  LEU124      0.0270
     68  CG        -1.7940   73.0670   59.6270 C.3   124  LEU124      0.0019
     69  CD1       -0.5720   72.5410   60.3880 C.3   124  LEU124      0.0001
     70  CD2       -2.9320   73.4050   60.5760 C.3   124  LEU124      0.0001
     71  N          1.3260   76.3900   56.0550 N.3   127  TYR127     -0.1241
     72  CA         1.1160   75.8170   54.7380 C.3   127  TYR127      0.1605
     73  C          0.5150   76.8370   53.7850 C.2   127  TYR127      0.2264
     74  O          0.0110   76.4720   52.7250 O.2   127  TYR127     -0.2867
     75  CB         0.1950   74.5960   54.8400 C.3   127  TYR127      0.0534
     76  CG         0.7390   73.4810   55.7080 C.ar  127  TYR127     -0.0201
     77  CD1        2.1130   73.3270   55.9100 C.ar  127  TYR127     -0.0009
     78  CD2       -0.1200   72.5630   56.3070 C.ar  127  TYR127     -0.0009
     79  CE1        2.6150   72.2800   56.6840 C.ar  127  TYR127      0.0417
     80  CE2        0.3660   71.5200   57.0770 C.ar  127  TYR127      0.0417
     81  CZ         1.7320   71.3830   57.2570 C.ar  127  TYR127      0.1957
     82  OH         2.2130   70.3220   57.9810 O.3   127  TYR127     -0.2866
     83  N          6.1440   66.9870   54.0590 N.3   196  GLU196     -0.1231
     84  CA         7.0220   66.7960   55.2020 C.3   196  GLU196      0.1699
     85  C          6.5500   65.6260   56.0520 C.2   196  GLU196      0.2592
     86  O          5.3540   65.4680   56.2980 O.2   196  GLU196     -0.2718
     87  CB         7.0520   68.0660   56.0530 C.3   196  GLU196      0.0402
     88  CG         8.2330   68.1470   57.0030 C.3   196  GLU196      0.1161
     89  CD         7.9240   67.6040   58.3980 C.2   196  GLU196      0.3649
     90  OE1        6.7300   67.3860   58.7140 O.co2 196  GLU196     -0.2457
     91  OE2        8.8890   67.3990   59.1740 O.co2 196  GLU196     -0.2457
     92  N          7.4950   64.7970   56.4760 N.am  197  SER197     -0.1952
     93  CA         7.1940   63.6570   57.3310 C.3   197  SER197      0.1924
     94  C          6.1950   62.7000   56.6910 C.2   197  SER197      0.2314
     95  O          6.4860   62.0600   55.6810 O.2   197  SER197     -0.2863
     96  CB         6.6810   64.1720   58.6830 C.3   197  SER197      0.2116
     97  OG         6.6230   63.1350   59.6390 O.3   197  SER197     -0.2180
     98  N          7.4190   53.6460   60.8600 N.3   230  TRP230     -0.1241
     99  CA         6.0840   54.0350   61.2920 C.3   230  TRP230      0.1605
    100  C          5.1350   54.3840   60.1410 C.2   230  TRP230      0.2264
    101  O          3.9340   54.5540   60.3530 O.2   230  TRP230     -0.2867
    102  CB         6.2200   55.2550   62.1860 C.3   230  TRP230      0.0550
    103  CG         7.0720   56.2850   61.5200 C.ar  230  TRP230      0.0003
    104  CD1        8.4290   56.4090   61.6090 C.ar  230  TRP230      0.0946
    105  CD2        6.6310   57.3140   60.6240 C.ar  230  TRP230      0.0152
    106  NE1        8.8610   57.4520   60.8250 N.ar  230  TRP230     -0.2442
    107  CE2        7.7790   58.0250   60.2080 C.ar  230  TRP230      0.0810
    108  CE3        5.3750   57.7030   60.1300 C.ar  230  TRP230      0.0012
    109  CZ2        7.7110   59.1080   59.3220 C.ar  230  TRP230      0.0191
    110  CZ3        5.3070   58.7800   59.2510 C.ar  230  TRP230      0.0001
    111  CH2        6.4700   59.4700   58.8580 C.ar  230  TRP230      0.0015
    112  N          6.8960   57.3470   68.5270 N.3   285  PHE285     -0.1241
    113  CA         6.9930   57.3940   67.0670 C.3   285  PHE285      0.1605
    114  C          6.2860   56.2430   66.3490 C.2   285  PHE285      0.2264
    115  O          6.8190   55.6580   65.4030 O.2   285  PHE285     -0.2867
    116  CB         8.4640   57.4290   66.6410 C.3   285  PHE285      0.0534
    117  CG         8.7670   58.4700   65.6100 C.ar  285  PHE285     -0.0203
    118  CD1        8.0150   58.5460   64.4410 C.ar  285  PHE285     -0.0042
    119  CD2        9.8000   59.3770   65.8050 C.ar  285  PHE285     -0.0042
    120  CE1        8.2870   59.5120   63.4790 C.ar  285  PHE285     -0.0003
    121  CE2       10.0800   60.3520   64.8450 C.ar  285  PHE285     -0.0003
    122  CZ         9.3180   60.4170   63.6780 C.ar  285  PHE285     -0.0000
    123  N          2.1330   55.0310   65.1730 N.3   287  PHE287     -0.1241
    124  CA         0.7530   55.4470   65.0420 C.3   287  PHE287      0.1605
    125  C         -0.1060   54.2880   64.5790 C.2   287  PHE287      0.2264
    126  O          0.3280   53.4330   63.8120 O.2   287  PHE287     -0.2867
    127  CB         0.7100   56.6300   64.0860 C.3   287  PHE287      0.0534
    128  CG         1.9080   57.5420   64.2220 C.ar  287  PHE287     -0.0203
    129  CD1        1.9730   58.4780   65.2580 C.ar  287  PHE287     -0.0042
    130  CD2        2.9940   57.4270   63.3570 C.ar  287  PHE287     -0.0042
    131  CE1        3.1010   59.2830   65.4330 C.ar  287  PHE287     -0.0003
    132  CE2        4.1280   58.2260   63.5220 C.ar  287  PHE287     -0.0003
    133  CZ         4.1800   59.1570   64.5650 C.ar  287  PHE287     -0.0000
    134  N         10.9150   66.1530   69.2590 N.3   327  PHE327     -0.1227
    135  CA         9.4670   66.3560   69.3640 C.3   327  PHE327      0.1736
    136  C          8.7240   65.1670   69.9510 C.2   327  PHE327      0.2595
    137  O          7.7380   65.3250   70.6710 O.2   327  PHE327     -0.2718
    138  CB         8.8780   66.6490   67.9830 C.3   327  PHE327      0.0547
    139  CG         7.7450   67.6350   68.0000 C.ar  327  PHE327     -0.0202
    140  CD1        6.7590   67.5700   68.9780 C.ar  327  PHE327     -0.0042
    141  CD2        7.6720   68.6460   67.0470 C.ar  327  PHE327     -0.0042
    142  CE1        5.7170   68.5020   69.0080 C.ar  327  PHE327     -0.0003
    143  CE2        6.6370   69.5790   67.0690 C.ar  327  PHE327     -0.0003
    144  CZ         5.6570   69.5050   68.0530 C.ar  327  PHE327     -0.0000
    145  N          9.2060   63.9730   69.6340 N.am  328  PHE328     -0.1976
    146  CA         8.5670   62.7430   70.0800 C.3   328  PHE328      0.1639
    147  C          8.9610   62.3080   71.4770 C.2   328  PHE328      0.2290
    148  O          8.1970   61.6250   72.1560 O.2   328  PHE328     -0.2864
    149  CB         8.8340   61.6470   69.0440 C.3   328  PHE328      0.0560
    150  CG         8.4180   62.0500   67.6630 C.ar  328  PHE328     -0.0200
    151  CD1        9.2590   62.8360   66.8730 C.ar  328  PHE328     -0.0042
    152  CD2        7.1330   61.7810   67.2100 C.ar  328  PHE328     -0.0042
    153  CE1        8.8220   63.3550   65.6690 C.ar  328  PHE328     -0.0003
    154  CE2        6.6890   62.2970   66.0040 C.ar  328  PHE328     -0.0003
    155  CZ         7.5350   63.0890   65.2340 C.ar  328  PHE328     -0.0000
    156  N          6.9670   64.3620   73.9910 N.3   331  TYR331     -0.1241
    157  CA         5.5820   63.9510   74.1810 C.3   331  TYR331      0.1605
    158  C          5.3680   62.5830   74.8250 C.2   331  TYR331      0.2264
    159  O          4.3010   62.3280   75.3820 O.2   331  TYR331     -0.2867
    160  CB         4.8460   63.9870   72.8430 C.3   331  TYR331      0.0534
    161  CG         4.2160   65.3180   72.5040 C.ar  331  TYR331     -0.0201
    162  CD1        4.9970   66.4560   72.3240 C.ar  331  TYR331     -0.0009
    163  CD2        2.8350   65.4350   72.3420 C.ar  331  TYR331     -0.0009
    164  CE1        4.4170   67.6800   71.9890 C.ar  331  TYR331      0.0417
    165  CE2        2.2460   66.6540   72.0090 C.ar  331  TYR331      0.0417
    166  CZ         3.0410   67.7690   71.8320 C.ar  331  TYR331      0.1957
    167  OH         2.4650   68.9700   71.4790 O.3   331  TYR331     -0.2866
    168  N         11.5670   68.5250   64.3660 N.3   437  HIS437     -0.1226
    169  CA        10.8910   67.8560   63.2650 C.3   437  HIS437      0.1752
    170  C          9.7550   68.7520   62.8100 C.2   437  HIS437      0.2596
    171  O          8.8750   69.0920   63.5980 O.2   437  HIS437     -0.2718
    172  CB        10.3270   66.5120   63.7470 C.3   437  HIS437      0.0759
    173  CG         9.7990   65.6250   62.6560 C.ar  437  HIS437      0.0818
    174  ND1       10.6120   65.0860   61.6800 N.ar  437  HIS437     -0.2268
    175  CD2        8.5340   65.2690   62.3250 C.ar  437  HIS437      0.1154
    176  CE1        9.8710   64.4420   60.7940 C.ar  437  HIS437      0.1986
    177  NE2        8.6060   64.5370   61.1620 N.ar  437  HIS437     -0.2212
    178  N          9.7970   69.1490   61.5420 N.am  438  GLY438     -0.1957
    179  CA         8.7500   69.9820   60.9840 C.3   438  GLY438      0.1869
    180  C          9.0160   71.4690   61.0420 C.2   438  GLY438      0.2309
    181  O          8.1500   72.2700   60.6850 O.2   438  GLY438     -0.2863
    182  N          9.7530   73.6480   57.4200 N.3   441  ILE441     -0.1245
    183  CA         8.5820   74.0360   56.6490 C.3   441  ILE441      0.1561
    184  C          8.4240   75.5480   56.5130 C.2   441  ILE441      0.2260
    185  O          8.3350   76.0650   55.4050 O.2   441  ILE441     -0.2867
    186  CB         7.2890   73.4610   57.2850 C.3   441  ILE441      0.0252
    187  CG1        7.3540   71.9310   57.3100 C.3   441  ILE441      0.0019
    188  CG2        6.0600   73.9350   56.5070 C.3   441  ILE441      0.0019
    189  CD1        6.0640   71.2730   57.7580 C.3   441  ILE441      0.0001
@<TRIPOS>BOND
     1    74    73    2
     2    73    72    1
     3    83    84    1
     4    72    75    1
     5    72    71    1
     6    75    76    1
     7    84    85    1
     8    84    87    1
     9   185   184    2
    10    95    94    2
    11    76    77   ar
    12    76    78   ar
    13    77    79   ar
    14    85    86    2
    15    85    92   am
    16    87    88    1
    17    78    80   ar
    18    92    93    1
    19    29    30    1
    20   188   186    1
    21   184   183    1
    22   183   186    1
    23   183   182    1
    24    79    81   ar
    25    94    93    1
    26    66    65    2
    27    88    89    1
    28    80    81   ar
    29    81    82    1
    30   186   187    1
    31   187   189    1
    32    93    96    1
    33    30    31    1
    34    63    64    1
    35    65    64    1
    36    89    90   ar
    37    89    91   ar
    38    64    67    1
    39    32    31    2
    40    31    33   am
    41    62    61    2
    42    96    97    1
    43    61    60    1
    44    67    68    1
    45   111   110   ar
    46   111   109   ar
    47   110   108   ar
    48   109   107   ar
    49    60    59    1
    50    68    69    1
    51    68    70    1
    52    33    34    1
    53    56    55    2
    54   108   105   ar
    55   100   101    2
    56   100    99    1
    57   107   105   ar
    58   107   106   ar
    59    59    55   am
    60    55    54    1
    61   105   103   ar
    62   181   180    2
    63    39    40    2
    64    39    38    1
    65   176   177   ar
    66   176   174   ar
    67   106   104   ar
    68    34    35    1
    69    98    99    1
    70    27    28   ar
    71    27    25   ar
    72   179   180    1
    73   179   178    1
    74    37    35   am
    75    37    38    1
    76    41    42    1
    77   177   175   ar
    78    35    36    2
    79    99   102    1
    80    28    26   ar
    81   103   104   ar
    82   103   102    1
    83   178   170   am
    84    53    54    1
    85    53    43   am
    86   174   173   ar
    87    54    57    1
    88    25    22   ar
    89    42    43    1
    90    42    45    1
    91    43    44    2
    92   175   173   ar
    93   173   172    1
    94   170   169    1
    95   170   171    2
    96    26    24   ar
    97    57    58    1
    98    22    24   ar
    99    22    20   ar
   100    18    17    2
   101   169   172    1
   102   169   168    1
   103    45    46    1
   104   130   132   ar
   105   130   128   ar
   106   120   122   ar
   107   120   118   ar
   108   132   133   ar
   109   122   121   ar
   110    24    23   ar
   111    16    17    1
   112    16    19    1
   113    16    15    1
   114   126   125    2
   115   127   128    1
   116   127   124    1
   117   128   129   ar
   118    46    48   ar
   119    46    47   ar
   120    19    20    1
   121    20    21   ar
   122    48    50   ar
   123   118   117   ar
   124   133   131   ar
   125   125   124    1
   126   121   119   ar
   127    47    49   ar
   128    23    21   ar
   129   124   123    1
   130    50    51   ar
   131   155   153   ar
   132   155   154   ar
   133   129   131   ar
   134   115   114    2
   135   117   119   ar
   136   117   116    1
   137   153   151   ar
   138    49    51   ar
   139    51    52    1
   140   154   152   ar
   141   114   113    1
   142   116   113    1
   143   151   150   ar
   144   141   143   ar
   145   141   139   ar
   146   113   112    1
   147   143   144   ar
   148   152   150   ar
   149   150   149    1
   150    12    11    2
   151   138   139    1
   152   138   135    1
   153   139   140   ar
   154   144   142   ar
   155    11    10    1
   156   140   142   ar
   157   149   146    1
   158   134   135    1
   159    10     9    1
   160    10    13    1
   161   135   136    1
   162     1     2    1
   163   145   136   am
   164   145   146    1
   165     5     2    1
   166     5     6    1
   167   136   137    2
   168   146   147    1
   169     2     3    1
   170     8     6   ar
   171    13    14    1
   172     6     7   ar
   173     4     3    2
   174   147   148    2
   175   167   166    1
   176   166   164   ar
   177   166   165   ar
   178   164   162   ar
   179   165   163   ar
   180   162   161   ar
   181   163   161   ar
   182   161   160    1
   183   160   157    1
   184   156   157    1
   185   157   158    1
   186   158   159    2
