@<TRIPOS>MOLECULE
tmp/1qtnA00.pdb
 90 88 0 0 0
SMALL
GASTEIGER

@<TRIPOS>ATOM
      1  N         -8.8010   42.8510   41.2160 N.3    36  ARG36      -0.1231
      2  CA        -7.6150   42.6430   42.0170 C.3    36  ARG36       0.1694
      3  C         -6.3800   42.3360   41.2060 C.2    36  ARG36       0.2592
      4  O         -6.4180   41.6970   40.1480 O.2    36  ARG36      -0.2718
      5  CB        -7.8480   41.4890   43.0120 C.3    36  ARG36       0.0321
      6  CG        -8.8610   41.7950   44.1030 C.3    36  ARG36       0.0489
      7  CD        -8.9760   40.5920   45.0380 C.3    36  ARG36       0.2205
      8  NE        -9.9820   40.7640   46.0620 N.pl3  36  ARG36      -0.0865
      9  CZ       -10.3280   39.8340   46.9500 C.cat  36  ARG36       0.5346
     10  NH1      -11.2620   40.1000   47.8540 N.pl3  36  ARG36       0.1354
     11  NH2       -9.7480   38.6390   46.9300 N.pl3  36  ARG36       0.1354
     12  N         -5.2250   42.6430   41.7950 N.am   37  ASP37      -0.1960
     13  CA        -3.9660   42.2090   41.2170 C.3    37  ASP37       0.1840
     14  C         -3.8570   40.6920   41.2800 C.2    37  ASP37       0.2622
     15  O         -4.3720   40.0550   42.2190 O.2    37  ASP37      -0.2715
     16  CB        -2.7870   42.8290   41.9690 C.3    37  ASP37       0.1450
     17  CG        -2.6750   44.3140   41.7640 C.2    37  ASP37       0.3671
     18  OD1       -3.2930   44.9130   40.9040 O.co2  37  ASP37      -0.2456
     19  OD2       -1.8490   44.9350   42.5060 O.co2  37  ASP37      -0.2456
     20  N         -3.1740   40.0780   40.3350 N.am   38  ARG38      -0.1963
     21  CA        -3.1700   38.6340   40.2100 C.3    38  ARG38       0.1729
     22  C         -2.0360   37.9680   40.9360 C.2    38  ARG38       0.2616
     23  O         -1.1430   37.3690   40.3600 O.2    38  ARG38      -0.2715
     24  CB        -3.2640   38.2250   38.7420 C.3    38  ARG38       0.0348
     25  CG        -4.5700   38.7350   38.0950 C.3    38  ARG38       0.0492
     26  CD        -4.7070   38.2710   36.6440 C.3    38  ARG38       0.2205
     27  NE        -4.6740   36.8390   36.5290 N.pl3  38  ARG38      -0.0865
     28  CZ        -3.6450   36.0460   36.2440 C.cat  38  ARG38       0.5346
     29  NH1       -2.4960   36.5420   35.8360 N.pl3  38  ARG38       0.1354
     30  NH2       -3.7790   34.7370   36.4030 N.pl3  38  ARG38       0.1354
     31  N         -2.0240   38.1510   42.2610 N.am   39  ASN39      -0.1972
     32  CA        -0.9350   37.6330   43.0810 C.3    39  ASN39       0.1688
     33  C         -0.7420   36.1460   42.8320 C.2    39  ASN39       0.2292
     34  O         -1.6450   35.3560   42.8050 O.2    39  ASN39      -0.2864
     35  CB        -1.1970   37.9220   44.5470 C.3    39  ASN39       0.1181
     36  CG        -1.1220   39.4110   44.8920 C.2    39  ASN39       0.2629
     37  OD1       -0.3220   40.1410   44.3060 O.2    39  ASN39      -0.2716
     38  ND2       -1.8530   39.7860   45.9160 N.am   39  ASN39      -0.0877
     39  N         -4.2240   36.2780   32.7080 N.3    94  SER94      -0.1202
     40  CA        -4.8360   37.5720   32.9580 C.3    94  SER94       0.2020
     41  C         -6.2210   37.4240   33.5450 C.2    94  SER94       0.2619
     42  O         -6.7080   36.3260   33.7910 O.2    94  SER94      -0.2717
     43  CB        -4.9260   38.4080   31.6650 C.3    94  SER94       0.2103
     44  OG        -5.1100   39.7770   31.9890 O.3    94  SER94      -0.2182
     45  N         -6.8670   38.5550   33.8350 N.am   95  HIS95      -0.1961
     46  CA        -8.2870   38.5890   34.0670 C.3    95  HIS95       0.1787
     47  C         -9.0280   38.4890   32.7250 C.2    95  HIS95       0.2620
     48  O         -8.4540   38.7000   31.6620 O.2    95  HIS95      -0.2715
     49  CB        -8.7250   39.8450   34.8070 C.3    95  HIS95       0.0785
     50  CG        -8.4270   39.8040   36.2640 C.ar   95  HIS95       0.0821
     51  ND1       -8.9640   38.8070   37.0690 N.ar   95  HIS95      -0.2267
     52  CD2       -7.6650   40.6080   37.0430 C.ar   95  HIS95       0.1154
     53  CE1       -8.5510   39.0370   38.3000 C.ar   95  HIS95       0.1986
     54  NE2       -7.8080   40.1420   38.3230 N.ar   95  HIS95      -0.2212
     55  N        -10.2970   38.1200   32.7850 N.am   96  GLY96      -0.1954
     56  CA       -11.1350   38.0950   31.6130 C.3    96  GLY96       0.1869
     57  C        -12.6140   38.0710   31.9620 C.2    96  GLY96       0.2309
     58  O        -13.0000   38.1110   33.1230 O.2    96  GLY96      -0.2863
     59  N         -5.4270   31.4170   30.5950 N.3   136  GLN136     -0.1231
     60  CA        -5.7160   31.3310   32.0120 C.3   136  GLN136      0.1698
     61  C         -6.3200   32.7000   32.4130 C.2   136  GLN136      0.2592
     62  O         -5.5930   33.6660   32.5690 O.2   136  GLN136     -0.2718
     63  CB        -4.4390   31.0600   32.8030 C.3   136  GLN136      0.0381
     64  CG        -4.5930   31.2100   34.3180 C.3   136  GLN136      0.0905
     65  CD        -5.8280   30.4940   34.8450 C.2   136  GLN136      0.2608
     66  OE1       -5.9980   29.2870   34.6440 O.2   136  GLN136     -0.2717
     67  NE2       -6.7140   31.2160   35.5180 N.am  136  GLN136     -0.0878
     68  N         -7.6240   32.7440   32.4470 N.am  137  ALA137     -0.1966
     69  CA        -8.3960   33.9290   32.7730 C.3   137  ALA137      0.1728
     70  C         -9.7960   33.5020   33.2080 C.2   137  ALA137      0.2616
     71  O        -10.1960   32.3620   32.9220 O.2   137  ALA137     -0.2715
     72  CB        -8.5370   34.8330   31.5400 C.3   137  ALA137      0.0334
     73  N        -10.5200   34.3360   33.9010 N.am  138  CYS138     -0.1968
     74  CA       -11.9530   34.0920   34.0710 C.3   138  CYS138      0.1712
     75  C        -12.6610   34.3890   32.7170 C.2   138  CYS138      0.2296
     76  O        -12.1060   35.0990   31.8940 O.2   138  CYS138     -0.2864
     77  CB       -12.5340   35.0260   35.1230 C.3   138  CYS138      0.0983
     78  SG       -11.8920   34.7280   36.7990 S.3   138  CYS138     -0.0798
     79  N        -19.7110   31.2790   39.6980 N.3   143  TYR143     -0.1241
     80  CA       -19.0410   30.0820   40.1900 C.3   143  TYR143      0.1605
     81  C        -19.7160   28.8750   39.5120 C.2   143  TYR143      0.2264
     82  O        -20.9180   28.6910   39.6360 O.2   143  TYR143     -0.2867
     83  CB       -19.2640   29.9580   41.7200 C.3   143  TYR143      0.0534
     84  CG       -18.5520   31.0450   42.4930 C.ar  143  TYR143     -0.0201
     85  CD1      -17.1840   31.0780   42.6050 C.ar  143  TYR143     -0.0009
     86  CD2      -19.2880   32.0620   43.1250 C.ar  143  TYR143     -0.0009
     87  CE1      -16.5160   32.0860   43.3040 C.ar  143  TYR143      0.0417
     88  CE2      -18.6270   33.0800   43.8040 C.ar  143  TYR143      0.0417
     89  CZ       -17.2580   33.0790   43.8920 C.ar  143  TYR143      0.1957
     90  OH       -16.6000   34.0870   44.5920 O.3   143  TYR143     -0.2866
@<TRIPOS>BOND
     1    59    60    1
     2    72    69    1
     3    56    57    1
     4    56    55    1
     5    48    47    2
     6    43    44    1
     7    43    40    1
     8    76    75    2
     9    57    58    2
    10    60    61    1
    11    60    63    1
    12    61    68   am
    13    61    62    2
    14    68    69    1
    15    39    40    1
    16    75    74    1
    17    47    55   am
    18    47    46    1
    19    69    70    1
    20    63    64    1
    21    71    70    2
    22    40    41    1
    23    70    73   am
    24    41    42    2
    25    41    45   am
    26    45    46    1
    27    73    74    1
    28    46    49    1
    29    74    77    1
    30    64    65    1
    31    66    65    2
    32    49    50    1
    33    65    67   am
    34    77    78    1
    35    29    28    1
    36    28    30    1
    37    28    27    2
    38    50    52   ar
    39    50    51   ar
    40    27    26    1
    41    26    25    1
    42    52    54   ar
    43    51    53   ar
    44    25    24    1
    45    53    54   ar
    46    24    21    1
    47    81    82    2
    48    81    80    1
    49    79    80    1
    50     4     3    2
    51    80    83    1
    52    21    20    1
    53    21    22    1
    54    20    14   am
    55    23    22    2
    56    18    17   ar
    57    22    31   am
    58     3    12   am
    59     3     2    1
    60     1     2    1
    61    13    14    1
    62    13    12    1
    63    13    16    1
    64    14    15    2
    65    83    84    1
    66    17    16    1
    67    17    19   ar
    68     2     5    1
    69    31    32    1
    70    84    85   ar
    71    84    86   ar
    72    85    87   ar
    73    34    33    2
    74    33    32    1
    75     5     6    1
    76    32    35    1
    77    86    88   ar
    78    87    89   ar
    79    88    89   ar
    80    89    90    1
    81     6     7    1
    82    37    36    2
    83    35    36    1
    84    36    38   am
    85     7     8    1
    86     8     9    2
    87    11     9    1
    88     9    10    1
