@<TRIPOS>MOLECULE
tmp/1qtnB00.pdb
 105 105 0 0 0
SMALL
GASTEIGER

@<TRIPOS>ATOM
      1  N        -15.7420   31.7640   36.5120 N.3    21  VAL21      -0.1231
      2  CA       -14.4260   32.0650   37.0250 C.3    21  VAL21       0.1692
      3  C        -13.4730   30.9030   36.8080 C.2    21  VAL21       0.2593
      4  O        -13.8750   29.7440   36.6340 O.2    21  VAL21      -0.2718
      5  CB       -14.4760   32.4140   38.5240 C.3    21  VAL21       0.0266
      6  CG1      -15.3500   33.6140   38.7850 C.3    21  VAL21       0.0020
      7  CG2      -14.8800   31.2350   39.3830 C.3    21  VAL21       0.0020
      8  N        -12.1900   31.2090   36.8820 N.am   22  SER22      -0.1938
      9  CA       -11.1730   30.2030   37.1020 C.3    22  SER22       0.2055
     10  C        -10.3510   30.6210   38.3430 C.2    22  SER22       0.2643
     11  O        -10.3900   31.8030   38.7180 O.2    22  SER22      -0.2714
     12  CB       -10.2710   29.9330   35.9300 C.3    22  SER22       0.2130
     13  OG        -9.5810   31.0600   35.4900 O.3    22  SER22      -0.2179
     14  N         -9.6570   29.6640   38.9200 N.am   23  TYR23      -0.1959
     15  CA        -9.0480   29.8270   40.2030 C.3    23  TYR23       0.1771
     16  C         -7.5430   29.9830   40.1790 C.2    23  TYR23       0.2619
     17  O         -6.8270   29.3220   39.4190 O.2    23  TYR23      -0.2715
     18  CB        -9.4490   28.7280   41.1470 C.3    23  TYR23       0.0574
     19  CG       -10.9100   28.7720   41.5550 C.ar   23  TYR23      -0.0198
     20  CD1      -11.2970   29.6720   42.5450 C.ar   23  TYR23      -0.0009
     21  CD2      -11.8560   27.9710   40.9730 C.ar   23  TYR23      -0.0009
     22  CE1      -12.6050   29.7310   42.9640 C.ar   23  TYR23       0.0417
     23  CE2      -13.1640   27.9830   41.4160 C.ar   23  TYR23       0.0417
     24  CZ       -13.5270   28.8750   42.4010 C.ar   23  TYR23       0.1957
     25  OH       -14.8280   28.9240   42.8430 O.3    23  TYR23      -0.2866
     26  N         -7.0850   30.8420   41.1000 N.am   24  ARG24      -0.1963
     27  CA        -5.6820   31.1120   41.2970 C.3    24  ARG24       0.1729
     28  C         -5.3470   31.0280   42.8080 C.2    24  ARG24       0.2616
     29  O         -5.9440   31.7510   43.5820 O.2    24  ARG24      -0.2715
     30  CB        -5.3080   32.4850   40.7850 C.3    24  ARG24       0.0348
     31  CG        -3.9020   32.9540   41.0090 C.3    24  ARG24       0.0492
     32  CD        -3.5060   34.1650   40.1800 C.3    24  ARG24       0.2205
     33  NE        -4.5930   35.1220   40.0930 N.pl3  24  ARG24      -0.0865
     34  CZ        -5.1530   35.7530   41.1000 C.cat  24  ARG24       0.5346
     35  NH1       -4.5100   35.8520   42.2720 N.pl3  24  ARG24       0.1354
     36  NH2       -6.3050   36.4040   40.9530 N.pl3  24  ARG24       0.1354
     37  N         -4.4700   30.1080   43.1340 N.am   25  ASN25      -0.1959
     38  CA        -3.9710   30.0820   44.5550 C.3    25  ASN25       0.1804
     39  C         -2.7320   31.0000   44.5680 C.2    25  ASN25       0.2463
     40  O         -1.7390   30.6750   43.9200 O.2    25  ASN25      -0.2730
     41  CB        -3.6090   28.6410   44.8610 C.3    25  ASN25       0.1195
     42  CG        -3.1510   28.3680   46.2610 C.2    25  ASN25       0.2630
     43  OD1       -3.2380   27.2190   46.7730 O.2    25  ASN25      -0.2716
     44  ND2       -2.8090   29.3800   46.9750 N.am   25  ASN25      -0.0877
     45  N         -2.7690   32.0940   45.3340 N.am   26  PRO26      -0.2727
     46  CA        -1.6170   32.9940   45.3620 C.3    26  PRO26       0.1402
     47  C         -0.2960   32.3720   45.7400 C.2    26  PRO26       0.2269
     48  O          0.7670   32.8970   45.3800 O.2    26  PRO26      -0.2865
     49  CB        -2.0120   34.0830   46.3700 C.3    26  PRO26       0.0296
     50  CG        -3.5070   34.0640   46.3360 C.3    26  PRO26       0.0237
     51  CD        -3.8910   32.6060   46.1580 C.3    26  PRO26       0.0939
     52  N         -2.2150   28.8540   39.3190 N.3    30  THR30      -0.1203
     53  CA        -3.6180   28.5520   38.9960 C.3    30  THR30       0.1994
     54  C         -3.8520   27.0730   38.9040 C.2    30  THR30       0.2617
     55  O         -3.0030   26.2660   38.5520 O.2    30  THR30      -0.2717
     56  CB        -4.0500   29.2650   37.7220 C.3    30  THR30       0.1784
     57  OG1       -3.2960   28.8070   36.5870 O.3    30  THR30      -0.2211
     58  CG2       -3.9250   30.7710   37.8500 C.3    30  THR30       0.0376
     59  N         -5.1070   26.6780   39.1510 N.am   31  TRP31      -0.1975
     60  CA        -5.4800   25.2670   39.0340 C.3    31  TRP31       0.1640
     61  C         -5.1420   24.7600   37.6160 C.2    31  TRP31       0.2290
     62  O         -4.5690   23.6990   37.4650 O.2    31  TRP31      -0.2864
     63  CB        -6.9910   25.1310   39.2640 C.3    31  TRP31       0.0576
     64  CG        -7.4450   25.3120   40.6700 C.ar   31  TRP31       0.0006
     65  CD1       -6.7040   25.6370   41.7660 C.ar   31  TRP31       0.0946
     66  CD2       -8.7900   25.0670   41.1610 C.ar   31  TRP31       0.0152
     67  NE1       -7.5080   25.6370   42.9000 N.ar   31  TRP31      -0.2442
     68  CE2       -8.7700   25.3180   42.5570 C.ar   31  TRP31       0.0810
     69  CE3       -9.9720   24.7130   40.5440 C.ar   31  TRP31       0.0012
     70  CZ2       -9.9520   25.1850   43.3080 C.ar   31  TRP31       0.0191
     71  CZ3      -11.1300   24.5790   41.2980 C.ar   31  TRP31       0.0001
     72  CH2      -11.0900   24.8400   42.6710 C.ar   31  TRP31       0.0015
     73  N        -11.8530   21.7530   44.3920 N.3    65  ASP65      -0.1225
     74  CA       -12.9880   22.5740   44.7650 C.3    65  ASP65       0.1805
     75  C        -12.6060   23.7810   45.5930 C.2    65  ASP65       0.2597
     76  O        -11.5230   23.8100   46.2180 O.2    65  ASP65      -0.2718
     77  CB       -14.0970   21.7860   45.4280 C.3    65  ASP65       0.1424
     78  CG       -13.6020   20.9340   46.5450 C.2    65  ASP65       0.3668
     79  OD1      -12.7110   21.4300   47.3020 O.co2  65  ASP65      -0.2456
     80  OD2      -13.9930   19.7530   46.6630 O.co2  65  ASP65      -0.2456
     81  N        -13.4890   24.7350   45.5570 N.am   66  ASP66      -0.1974
     82  CA       -13.4260   25.9640   46.3770 C.3    66  ASP66       0.1709
     83  C        -14.4950   25.7970   47.4810 C.2    66  ASP66       0.2293
     84  O        -15.6740   25.9740   47.1950 O.2    66  ASP66      -0.2864
     85  CB       -13.7640   27.1330   45.4670 C.3    66  ASP66       0.1436
     86  CG       -14.1350   28.4130   46.1500 C.2    66  ASP66       0.3671
     87  OD1      -13.8930   28.5030   47.3920 O.co2  66  ASP66      -0.2456
     88  OD2      -14.6430   29.3190   45.4840 O.co2  66  ASP66      -0.2456
     89  N        -15.0640   27.5660   49.9920 N.3    68  LYS68      -0.1231
     90  CA       -15.6650   28.8110   50.4940 C.3    68  LYS68       0.1693
     91  C        -16.9550   29.1420   49.7940 C.2    68  LYS68       0.2592
     92  O        -17.9480   29.5440   50.4010 O.2    68  LYS68      -0.2718
     93  CB       -14.6950   29.9650   50.4480 C.3    68  LYS68       0.0285
     94  CG       -13.7200   30.0920   51.5740 C.3    68  LYS68       0.0035
     95  CD       -14.3740   30.3470   52.9220 C.3    68  LYS68       0.0206
     96  CE       -13.6070   29.6440   54.0420 C.3    68  LYS68       0.1093
     97  NZ       -13.6400   28.1580   53.8930 N.3    68  LYS68      -0.1314
     98  N        -16.9690   29.0600   48.4490 N.am   69  ASN69      -0.1974
     99  CA       -18.1220   29.3970   47.6550 C.3    69  ASN69       0.1688
    100  C        -18.7840   28.1470   47.0280 C.2    69  ASN69       0.2292
    101  O        -19.7010   28.3370   46.2190 O.2    69  ASN69      -0.2864
    102  CB       -17.7340   30.3270   46.5000 C.3    69  ASN69       0.1181
    103  CG       -17.1270   31.6190   47.0450 C.2    69  ASN69       0.2629
    104  OD1      -17.8040   32.3660   47.7400 O.2    69  ASN69      -0.2716
    105  ND2      -15.8450   31.8030   46.7790 N.am   69  ASN69      -0.0877
@<TRIPOS>BOND
     1    13    12    1
     2    12     9    1
     3     1     2    1
     4    57    56    1
     5     4     3    2
     6     3     8   am
     7     3     2    1
     8     8     9    1
     9     2     5    1
    10     9    10    1
    11    62    61    2
    12    61    60    1
    13    56    58    1
    14    56    53    1
    15    10    11    2
    16    10    14   am
    17     5     6    1
    18     5     7    1
    19    55    54    2
    20    54    53    1
    21    54    59   am
    22    14    15    1
    23    53    52    1
    24    60    59    1
    25    60    63    1
    26    63    64    1
    27    17    16    2
    28    33    32    1
    29    33    34    2
    30    16    15    1
    31    16    26   am
    32    32    31    1
    33    15    18    1
    34    69    66   ar
    35    69    71   ar
    36    64    66   ar
    37    64    65   ar
    38    30    31    1
    39    30    27    1
    40    36    34    1
    41    21    23   ar
    42    21    19   ar
    43    34    35    1
    44    26    27    1
    45    18    19    1
    46    66    68   ar
    47    27    28    1
    48    71    72   ar
    49    23    24   ar
    50    19    20   ar
    51    65    67   ar
    52    24    25    1
    53    24    22   ar
    54    20    22   ar
    55    68    67   ar
    56    68    70   ar
    57    72    70   ar
    58    28    37   am
    59    28    29    2
    60    37    38    1
    61    40    39    2
    62    73    74    1
    63    38    39    1
    64    38    41    1
    65    39    45   am
    66    74    77    1
    67    74    75    1
    68    41    42    1
    69    45    46    1
    70    45    51    1
    71    46    47    1
    72    46    49    1
    73    48    47    2
    74    77    78    1
    75    85    86    1
    76    85    82    1
    77    88    86   ar
    78    81    75   am
    79    81    82    1
    80    75    76    2
    81    86    87   ar
    82    51    50    1
    83   101   100    2
    84    42    43    2
    85    42    44   am
    86    50    49    1
    87    82    83    1
    88   102   103    1
    89   102    99    1
    90    78    80   ar
    91    78    79   ar
    92   105   103   am
    93   100    99    1
    94   103   104    2
    95    84    83    2
    96    99    98    1
    97    98    91   am
    98    91    92    2
    99    91    90    1
   100    89    90    1
   101    93    90    1
   102    93    94    1
   103    94    95    1
   104    95    96    1
   105    97    96    1
