@<TRIPOS>MOLECULE
tmp/1qtqB00.pdb
 217 212 0 0 0
SMALL
GASTEIGER

@<TRIPOS>ATOM
      1  N         37.6560   32.3790    6.5310 N.3    23  ARG23      -0.1231
      2  CA        38.9640   31.7520    6.3850 C.3    23  ARG23       0.1694
      3  C         39.3420   30.8570    7.5680 C.2    23  ARG23       0.2592
      4  O         38.7900   30.9700    8.6600 O.2    23  ARG23      -0.2718
      5  CB        40.0540   32.8010    6.1280 C.3    23  ARG23       0.0321
      6  CG        40.8840   33.2800    7.3410 C.3    23  ARG23       0.0489
      7  CD        40.2100   34.3780    8.1550 C.3    23  ARG23       0.2205
      8  NE        39.5730   33.8440    9.3540 N.pl3  23  ARG23      -0.0865
      9  CZ        40.1030   33.8880   10.5710 C.cat  23  ARG23       0.5346
     10  NH1       41.2770   34.4550   10.7730 N.pl3  23  ARG23       0.1354
     11  NH2       39.4510   33.3660   11.5910 N.pl3  23  ARG23       0.1354
     12  N         40.2050   29.8870    7.2940 N.am   24  PHE24      -0.1963
     13  CA        40.7110   28.9910    8.3120 C.3    24  PHE24       0.1756
     14  C         42.2110   29.2690    8.2580 C.2    24  PHE24       0.2461
     15  O         42.8810   28.8370    7.3200 O.2    24  PHE24      -0.2730
     16  CB        40.4250   27.5320    7.9750 C.3    24  PHE24       0.0574
     17  CG        41.0310   26.5690    8.9530 C.ar   24  PHE24      -0.0200
     18  CD1       40.7230   26.6540   10.3110 C.ar   24  PHE24      -0.0042
     19  CD2       41.9610   25.6220    8.5390 C.ar   24  PHE24      -0.0042
     20  CE1       41.3340   25.8170   11.2360 C.ar   24  PHE24      -0.0003
     21  CE2       42.5800   24.7770    9.4650 C.ar   24  PHE24      -0.0003
     22  CZ        42.2620   24.8780   10.8140 C.ar   24  PHE24      -0.0000
     23  N         42.7350   30.0400    9.2290 N.am   25  PRO25      -0.2716
     24  CA        44.1360   30.4430    9.3340 C.3    25  PRO25       0.1521
     25  C         45.0410   29.7440   10.3530 C.2    25  PRO25       0.2440
     26  O         45.6380   30.4070   11.2070 O.2    25  PRO25      -0.2731
     27  CB        44.0240   31.9090    9.6700 C.3    25  PRO25       0.0310
     28  CG        42.9070   31.8850   10.6920 C.3    25  PRO25       0.0237
     29  CD        41.9200   30.8170   10.1850 C.3    25  PRO25       0.0939
     30  N         45.2820   28.4410   10.1910 N.am   26  PRO26      -0.2716
     31  CA        46.1390   27.7590   11.1580 C.3    26  PRO26       0.1536
     32  C         47.6140   28.0800   10.9390 C.2    26  PRO26       0.2598
     33  O         48.0100   28.4750    9.8490 O.2    26  PRO26      -0.2715
     34  CB        45.8790   26.2990   10.8440 C.3    26  PRO26       0.0310
     35  CG        45.7420   26.3220    9.3500 C.3    26  PRO26       0.0237
     36  CD        44.8070   27.4930    9.1670 C.3    26  PRO26       0.0939
     37  N         48.4140   27.9150   11.9920 N.am   27  GLU27      -0.1978
     38  CA        49.8580   28.1180   11.9010 C.3    27  GLU27       0.1602
     39  C         50.4670   26.7180   11.6870 C.2    27  GLU27       0.2287
     40  O         50.0940   25.7600   12.3680 O.2    27  GLU27      -0.2864
     41  CB        50.4100   28.7300   13.1930 C.3    27  GLU27       0.0415
     42  CG        51.9060   29.0570   13.1260 C.3    27  GLU27       0.1163
     43  CD        52.5640   29.1930   14.4930 C.2    27  GLU27       0.3649
     44  OE1       51.8420   29.2220   15.5150 O.co2  27  GLU27      -0.2457
     45  OE2       53.8130   29.2630   14.5420 O.co2  27  GLU27      -0.2457
     46  N         43.8890   19.1610   15.2350 N.3    33  HIS33      -0.1241
     47  CA        43.1550   18.3130   16.1650 C.3    33  HIS33       0.1621
     48  C         41.6580   18.5260   16.0250 C.2    33  HIS33       0.2264
     49  O         41.2260   19.4050   15.2870 O.2    33  HIS33      -0.2867
     50  CB        43.6190   18.5170   17.6140 C.3    33  HIS33       0.0745
     51  CG        43.6750   19.9490   18.0550 C.ar   33  HIS33       0.0817
     52  ND1       42.5890   20.7970   17.9960 N.ar   33  HIS33      -0.2268
     53  CD2       44.6820   20.6670   18.6100 C.ar   33  HIS33       0.1154
     54  CE1       42.9240   21.9730   18.4980 C.ar   33  HIS33       0.1986
     55  NE2       44.1880   21.9200   18.8770 N.ar   33  HIS33      -0.2212
     56  N         39.7500   19.9870   17.6070 N.3    35  GLY35      -0.1210
     57  CA        39.4120   21.3660   17.9180 C.3    35  GLY35       0.1956
     58  C         39.4580   22.2220   16.6750 C.2    35  GLY35       0.2611
     59  O         38.5670   23.0310   16.4370 O.2    35  GLY35      -0.2717
     60  N         40.4910   22.0180   15.8650 N.am   36  HIS36      -0.1975
     61  CA        40.6560   22.7500   14.6150 C.3    36  HIS36       0.1656
     62  C         39.5680   22.3790   13.6150 C.2    36  HIS36       0.2291
     63  O         39.2290   23.1730   12.7390 O.2    36  HIS36      -0.2864
     64  CB        42.0310   22.4710   14.0200 C.3    36  HIS36       0.0771
     65  CG        43.1600   23.0210   14.8350 C.ar   36  HIS36       0.0820
     66  ND1       44.1370   22.2250   15.3890 N.ar   36  HIS36      -0.2267
     67  CD2       43.4610   24.2910   15.1960 C.ar   36  HIS36       0.1154
     68  CE1       44.9930   22.9800   16.0540 C.ar   36  HIS36       0.1986
     69  NE2       44.6060   24.2370   15.9540 N.ar   36  HIS36      -0.2212
     70  N         36.5280   21.9590   14.4080 N.3    38  LYS38      -0.1231
     71  CA        35.3780   22.7570   14.8330 C.3    38  LYS38       0.1693
     72  C         35.4690   24.0670   14.0540 C.2    38  LYS38       0.2592
     73  O         34.4910   24.5460   13.4770 O.2    38  LYS38      -0.2718
     74  CB        35.4780   23.0370   16.3370 C.3    38  LYS38       0.0285
     75  CG        34.3560   23.8830   16.9550 C.3    38  LYS38       0.0035
     76  CD        34.6540   24.1540   18.4380 C.3    38  LYS38       0.0206
     77  CE        33.4620   24.6770   19.2170 C.3    38  LYS38       0.1093
     78  NZ        32.9970   25.9710   18.6870 N.3    38  LYS38      -0.1314
     79  N         36.6770   24.6160   14.0250 N.am   39  SER39      -0.1952
     80  CA        36.9470   25.8460   13.3190 C.3    39  SER39       0.1924
     81  C         36.7160   25.6340   11.8230 C.2    39  SER39       0.2314
     82  O         36.1030   26.4670   11.1570 O.2    39  SER39      -0.2863
     83  CB        38.3860   26.2680   13.5840 C.3    39  SER39       0.2116
     84  OG        38.7700   27.3090   12.7060 O.3    39  SER39      -0.2180
     85  N         49.1180   30.8650    8.5960 N.3    59  ASP59      -0.1239
     86  CA        49.6390   32.0180    9.3230 C.3    59  ASP59       0.1674
     87  C         51.0840   31.7260    9.7080 C.2    59  ASP59       0.2266
     88  O         51.3950   31.4520   10.8700 O.2    59  ASP59      -0.2867
     89  CB        48.7980   32.2470   10.5750 C.3    59  ASP59       0.1410
     90  CG        48.3640   33.6790   10.7300 C.2    59  ASP59       0.3668
     91  OD1       49.1610   34.5830   10.3960 O.co2  59  ASP59      -0.2456
     92  OD2       47.2210   33.8960   11.1910 O.co2  59  ASP59      -0.2456
     93  N         51.9570   38.2540   14.9580 N.3   204  TYR204     -0.1241
     94  CA        50.6040   37.8030   14.6920 C.3   204  TYR204      0.1605
     95  C         49.5920   38.9350   14.5610 C.2   204  TYR204      0.2264
     96  O         48.9210   39.0370   13.5440 O.2   204  TYR204     -0.2867
     97  CB        50.1440   36.7900   15.7570 C.3   204  TYR204      0.0534
     98  CG        48.6420   36.5970   15.7960 C.ar  204  TYR204     -0.0201
     99  CD1       48.0030   35.7370   14.9050 C.ar  204  TYR204     -0.0009
    100  CD2       47.8490   37.3560   16.6580 C.ar  204  TYR204     -0.0009
    101  CE1       46.6090   35.6560   14.8650 C.ar  204  TYR204      0.0417
    102  CE2       46.4620   37.2810   16.6270 C.ar  204  TYR204      0.0417
    103  CZ        45.8480   36.4370   15.7290 C.ar  204  TYR204      0.1957
    104  OH        44.4710   36.3940   15.6770 O.3   204  TYR204     -0.2866
    105  N         47.8260   39.2800   10.9380 N.3   208  HIS208     -0.1241
    106  CA        46.4710   38.7720   10.8250 C.3   208  HIS208      0.1621
    107  C         45.3500   39.6560   10.3030 C.2   208  HIS208      0.2264
    108  O         44.5100   39.1980    9.5170 O.2   208  HIS208     -0.2867
    109  CB        46.0420   38.1110   12.1280 C.3   208  HIS208      0.0745
    110  CG        45.0120   37.0540   11.9190 C.ar  208  HIS208      0.0817
    111  ND1       45.3440   35.7390   11.6700 N.ar  208  HIS208     -0.2268
    112  CD2       43.6700   37.1360   11.7850 C.ar  208  HIS208      0.1154
    113  CE1       44.2510   35.0590   11.3800 C.ar  208  HIS208      0.1986
    114  NE2       43.2180   35.8860   11.4420 N.ar  208  HIS208     -0.2212
    115  N         36.0420   37.4510   10.3170 N.3   220  SER220     -0.1202
    116  CA        37.1940   36.7070   10.7890 C.3   220  SER220      0.2020
    117  C         36.7460   36.0180   12.0710 C.2   220  SER220      0.2619
    118  O         36.4830   36.6790   13.0750 O.2   220  SER220     -0.2717
    119  CB        38.3480   37.6690   11.0530 C.3   220  SER220      0.2103
    120  OG        39.5320   36.9630   11.3550 O.3   220  SER220     -0.2182
    121  N         36.5970   34.6950   12.0010 N.am  221  LEU221     -0.1965
    122  CA        36.1410   33.8740   13.1240 C.3   221  LEU221      0.1728
    123  C         37.2690   33.1550   13.8540 C.2   221  LEU221      0.2616
    124  O         37.9150   32.2780   13.2940 O.2   221  LEU221     -0.2715
    125  CB        35.1280   32.8500   12.6190 C.3   221  LEU221      0.0311
    126  CG        34.0280   33.4640   11.7510 C.3   221  LEU221      0.0022
    127  CD1       33.0800   32.3780   11.2790 C.3   221  LEU221      0.0001
    128  CD2       33.2830   34.5520   12.5180 C.3   221  LEU221      0.0001
    129  N         37.4780   33.5150   15.1170 N.am  222  CYS222     -0.1954
    130  CA        38.5300   32.9260   15.9440 C.3   222  CYS222      0.1843
    131  C         37.9680   32.5430   17.3120 C.2   222  CYS222      0.2626
    132  O         36.7740   32.7140   17.5780 O.2   222  CYS222     -0.2714
    133  CB        39.6560   33.9380   16.1410 C.3   222  CYS222      0.0997
    134  SG        39.1050   35.4340   16.9960 S.3   222  CYS222     -0.0797
    135  N         38.8310   32.0370   18.1860 N.am  223  THR223     -0.1950
    136  CA        38.3890   31.6450   19.5130 C.3   223  THR223      0.1897
    137  C         38.4580   32.7890   20.5200 C.2   223  THR223      0.2313
    138  O         39.0270   33.8460   20.2490 O.2   223  THR223     -0.2863
    139  CB        39.1280   30.3930   20.0160 C.3   223  THR223      0.1794
    140  OG1       40.4920   30.4400   19.5940 O.3   223  THR223     -0.2208
    141  CG2       38.5010   29.1600   19.4460 C.3   223  THR223      0.0378
    142  N         40.2020   33.5580   23.2940 N.3   225  GLU225     -0.1231
    143  CA        41.4620   34.1800   23.7420 C.3   225  GLU225      0.1699
    144  C         41.9980   35.3340   22.9040 C.2   225  GLU225      0.2592
    145  O         43.0800   35.8580   23.1950 O.2   225  GLU225     -0.2718
    146  CB        42.5890   33.1500   23.9230 C.3   225  GLU225      0.0402
    147  CG        42.2460   31.7000   23.6270 C.3   225  GLU225      0.1161
    148  CD        42.2270   31.3830   22.1560 C.2   225  GLU225      0.3649
    149  OE1       41.4420   32.0240   21.4370 O.co2 225  GLU225     -0.2457
    150  OE2       42.9980   30.4980   21.7180 O.co2 225  GLU225     -0.2457
    151  N         41.2710   35.7040   21.8510 N.am  226  PHE226     -0.1976
    152  CA        41.6820   36.8000   20.9740 C.3   226  PHE226      0.1639
    153  C         40.7780   38.0100   21.1120 C.2   226  PHE226      0.2290
    154  O         40.9220   38.9750   20.3650 O.2   226  PHE226     -0.2864
    155  CB        41.7060   36.3560   19.5060 C.3   226  PHE226      0.0560
    156  CG        42.7770   35.3520   19.1920 C.ar  226  PHE226     -0.0200
    157  CD1       44.0990   35.7500   19.0400 C.ar  226  PHE226     -0.0042
    158  CD2       42.4630   34.0020   19.0660 C.ar  226  PHE226     -0.0042
    159  CE1       45.1010   34.8130   18.7690 C.ar  226  PHE226     -0.0003
    160  CE2       43.4560   33.0560   18.7940 C.ar  226  PHE226     -0.0003
    161  CZ        44.7780   33.4630   18.6460 C.ar  226  PHE226     -0.0000
    162  N         36.1050   40.8760   13.4770 N.3   248  GLN248     -0.1245
    163  CA        36.4290   39.6540   14.2140 C.3   248  GLN248      0.1566
    164  C         35.3620   39.2560   15.2200 C.2   248  GLN248      0.2260
    165  O         34.8400   40.0890   15.9590 O.2   248  GLN248     -0.2867
    166  CB        37.7660   39.8070   14.9330 C.3   248  GLN248      0.0367
    167  CG        38.1730   38.5950   15.7390 C.3   248  GLN248      0.0905
    168  CD        39.4440   38.8340   16.5270 C.2   248  GLN248      0.2608
    169  OE1       40.5450   38.8190   15.9730 O.2   248  GLN248     -0.2717
    170  NE2       39.3000   39.0710   17.8290 N.am  248  GLN248     -0.0878
    171  N         34.4330   32.7170   19.3020 N.3   251  PHE251     -0.1241
    172  CA        33.6130   31.6260   19.8100 C.3   251  PHE251      0.1605
    173  C         34.4940   30.7800   20.7100 C.2   251  PHE251      0.2264
    174  O         35.7130   30.7480   20.5370 O.2   251  PHE251     -0.2867
    175  CB        33.0560   30.7820   18.6590 C.3   251  PHE251      0.0534
    176  CG        34.1120   30.0890   17.8490 C.ar  251  PHE251     -0.0203
    177  CD1       34.7870   30.7660   16.8480 C.ar  251  PHE251     -0.0042
    178  CD2       34.4530   28.7680   18.1120 C.ar  251  PHE251     -0.0042
    179  CE1       35.7910   30.1410   16.1230 C.ar  251  PHE251     -0.0003
    180  CE2       35.4600   28.1320   17.3880 C.ar  251  PHE251     -0.0003
    181  CZ        36.1290   28.8210   16.3950 C.ar  251  PHE251     -0.0000
    182  N         36.4840   27.7230   22.3720 N.3   253  ARG253     -0.1231
    183  CA        37.1990   26.5750   21.8440 C.3   253  ARG253      0.1694
    184  C         36.6760   25.2680   22.4170 C.2   253  ARG253      0.2591
    185  O         35.9560   25.2520   23.4150 O.2   253  ARG253     -0.2718
    186  CB        38.7060   26.7140   22.0820 C.3   253  ARG253      0.0321
    187  CG        39.1150   27.0150   23.4990 C.3   253  ARG253      0.0489
    188  CD        40.5900   27.3240   23.5620 C.3   253  ARG253      0.2205
    189  NE        41.3710   26.1610   23.1710 N.pl3 253  ARG253     -0.0865
    190  CZ        42.3850   26.2010   22.3140 C.cat 253  ARG253      0.5346
    191  NH1       42.7480   27.3550   21.7640 N.pl3 253  ARG253      0.1354
    192  NH2       43.0400   25.0850   22.0120 N.pl3 253  ARG253      0.1354
    193  N         37.0000   24.1780   21.7350 N.am  254  LEU254     -0.1980
    194  CA        36.5740   22.8510   22.1440 C.3   254  LEU254      0.1596
    195  C         37.5660   22.1960   23.0870 C.2   254  LEU254      0.2287
    196  O         38.7860   22.3620   22.9610 O.2   254  LEU254     -0.2864
    197  CB        36.3960   21.9580   20.9130 C.3   254  LEU254      0.0297
    198  CG        36.2530   20.4520   21.1270 C.3   254  LEU254      0.0022
    199  CD1       34.8960   20.1360   21.7410 C.3   254  LEU254      0.0001
    200  CD2       36.4030   19.7410   19.8050 C.3   254  LEU254      0.0001
    201  N         44.1050   19.3620   24.4530 N.3   261  MET261     -0.1245
    202  CA        43.8340   19.9940   23.1620 C.3   261  MET261      0.1570
    203  C         44.7670   21.1170   22.7010 C.2   261  MET261      0.2261
    204  O         44.3340   22.0250   22.0210 O.2   261  MET261     -0.2867
    205  CB        42.4050   20.5190   23.1610 C.3   261  MET261      0.0387
    206  CG        41.7450   20.5950   21.7970 C.3   261  MET261      0.0595
    207  SD        41.6250   18.9620   21.0160 S.3   261  MET261     -0.1393
    208  CE        40.3520   18.2030   21.9740 C.3   261  MET261      0.0692
    209  N         48.4930   22.1560   20.8020 N.3   263  LYS263     -0.1245
    210  CA        49.5520   21.6310   19.9590 C.3   263  LYS263      0.1561
    211  C         50.7930   21.4500   20.8140 C.2   263  LYS263      0.2260
    212  O         51.5610   20.5150   20.6110 O.2   263  LYS263     -0.2867
    213  CB        49.8620   22.5690   18.7870 C.3   263  LYS263      0.0271
    214  CG        48.8100   22.6430   17.6900 C.3   263  LYS263      0.0035
    215  CD        49.4840   22.8980   16.3460 C.3   263  LYS263      0.0206
    216  CE        48.6030   23.6870   15.3970 C.3   263  LYS263      0.1093
    217  NZ        48.4950   25.1120   15.8290 N.3   263  LYS263     -0.1314
@<TRIPOS>BOND
     1     5     2    1
     2     5     6    1
     3     2     1    1
     4     2     3    1
     5    12     3   am
     6    12    13    1
     7    15    14    2
     8     6     7    1
     9     3     4    2
    10    16    13    1
    11    16    17    1
    12     7     8    1
    13    14    13    1
    14    14    23   am
    15    19    17   ar
    16    19    21   ar
    17    85    86    1
    18    17    18   ar
    19    36    35    1
    20    36    30    1
    21    23    24    1
    22    23    29    1
    23    86    87    1
    24    86    89    1
    25    24    27    1
    26    24    25    1
    27    35    34    1
    28     8     9    2
    29    21    22   ar
    30   108   107    2
    31    27    28    1
    32    87    88    2
    33    33    32    2
    34    29    28    1
    35    30    25   am
    36    30    31    1
    37   107   106    1
    38    18    20   ar
    39   115   116    1
    40    25    26    2
    41    91    90   ar
    42     9    10    1
    43     9    11    1
    44    89    90    1
    45    90    92   ar
    46   116   119    1
    47   116   117    1
    48    22    20   ar
    49   106   105    1
    50   106   109    1
    51    34    31    1
    52    32    31    1
    53    32    37   am
    54   119   120    1
    55    82    81    2
    56   127   126    1
    57   113   114   ar
    58   113   111   ar
    59   114   112   ar
    60   111   110   ar
    61    39    38    1
    62    39    40    2
    63   126   128    1
    64   126   125    1
    65   112   110   ar
    66    81    80    1
    67    38    37    1
    68    38    41    1
    69   110   109    1
    70   121   117   am
    71   121   122    1
    72   117   118    2
    73   125   122    1
    74    84    83    1
    75    63    62    2
    76   122   123    1
    77    42    41    1
    78    42    43    1
    79   124   123    2
    80    80    83    1
    81    80    79    1
    82    73    72    2
    83   162   163    1
    84    96    95    2
    85    62    61    1
    86   123   129   am
    87    64    61    1
    88    64    65    1
    89    79    72   am
    90    72    71    1
    91   163   166    1
    92   163   164    1
    93    70    71    1
    94    43    45   ar
    95    43    44   ar
    96    95    94    1
    97    61    60    1
    98    94    93    1
    99    94    97    1
   100    71    74    1
   101    65    67   ar
   102    65    66   ar
   103   101    99   ar
   104   101   103   ar
   105    99    98   ar
   106   166   167    1
   107   129   130    1
   108    67    69   ar
   109   164   165    2
   110    46    47    1
   111    49    48    2
   112    66    68   ar
   113   216   217    1
   114   216   215    1
   115   104   103    1
   116   103   102   ar
   117   167   168    1
   118    97    98    1
   119    98   100   ar
   120    60    58   am
   121   130   133    1
   122   130   131    1
   123    69    68   ar
   124   169   168    2
   125    48    47    1
   126   179   181   ar
   127   179   177   ar
   128   133   134    1
   129    47    50    1
   130    74    75    1
   131   215   214    1
   132   181   180   ar
   133    59    58    2
   134   168   170   am
   135   102   100   ar
   136    58    57    1
   137   177   176   ar
   138    75    76    1
   139   131   132    2
   140   131   135   am
   141   180   178   ar
   142    56    57    1
   143    50    51    1
   144   214   213    1
   145   176   178   ar
   146   176   175    1
   147    52    51   ar
   148    52    54   ar
   149    51    53   ar
   150   135   136    1
   151    76    77    1
   152    54    55   ar
   153    53    55   ar
   154   161   159   ar
   155   161   160   ar
   156   175   172    1
   157    78    77    1
   158   159   157   ar
   159   213   210    1
   160   160   158   ar
   161   157   156   ar
   162   158   156   ar
   163   156   155    1
   164   171   172    1
   165   141   139    1
   166   155   152    1
   167   136   139    1
   168   136   137    1
   169   140   139    1
   170   200   198    1
   171   172   173    1
   172   210   209    1
   173   210   211    1
   174   138   137    2
   175   154   153    2
   176   174   173    2
   177   212   211    2
   178   197   198    1
   179   197   194    1
   180   152   153    1
   181   152   151    1
   182   207   206    1
   183   207   208    1
   184   198   199    1
   185   149   148   ar
   186   150   148   ar
   187   193   194    1
   188   193   184   am
   189   191   190    1
   190   206   205    1
   191   183   186    1
   192   183   182    1
   193   183   184    1
   194   151   144   am
   195   192   190    1
   196   204   203    2
   197   186   187    1
   198   194   195    1
   199   148   147    1
   200   190   189    2
   201   184   185    2
   202   203   202    1
   203   144   145    2
   204   144   143    1
   205   196   195    2
   206   205   202    1
   207   202   201    1
   208   189   188    1
   209   142   143    1
   210   187   188    1
   211   147   146    1
   212   143   146    1
