@<TRIPOS>MOLECULE
tmp/1qu2B00.pdb
 204 202 0 0 0
SMALL
GASTEIGER

@<TRIPOS>ATOM
      1  N         16.5720   81.8000   79.0470 N.3    55  GLY55      -0.1210
      2  CA        17.2640   80.9220   78.1150 C.3    55  GLY55       0.1940
      3  C         17.5110   79.6650   78.9380 C.2    55  GLY55       0.2454
      4  O         17.9600   79.7820   80.0700 O.2    55  GLY55      -0.2732
      5  N         17.2480   78.4560   78.4150 N.am   56  PRO56      -0.2718
      6  CA        17.4520   77.2160   79.1780 C.3    56  PRO56       0.1520
      7  C         18.8630   76.7110   79.4380 C.2    56  PRO56       0.2440
      8  O         19.5150   76.2110   78.5290 O.2    56  PRO56      -0.2731
      9  CB        16.6540   76.1950   78.3780 C.3    56  PRO56       0.0310
     10  CG        16.9170   76.6370   76.9700 C.3    56  PRO56       0.0237
     11  CD        16.7370   78.1580   77.0640 C.3    56  PRO56       0.0939
     12  N         19.3410   76.7950   80.6940 N.am   57  PRO57      -0.2716
     13  CA        20.6950   76.3070   80.9760 C.3    57  PRO57       0.1536
     14  C         20.7320   74.8110   80.7520 C.2    57  PRO57       0.2598
     15  O         19.6990   74.1550   80.7950 O.2    57  PRO57      -0.2715
     16  CB        20.9130   76.6870   82.4490 C.3    57  PRO57       0.0310
     17  CG        19.5460   76.6730   83.0170 C.3    57  PRO57       0.0237
     18  CD        18.7220   77.3360   81.9160 C.3    57  PRO57       0.0939
     19  N         21.9220   74.2730   80.5180 N.am   58  TYR58      -0.1974
     20  CA        22.0680   72.8540   80.2670 C.3    58  TYR58       0.1639
     21  C         22.0370   72.0200   81.5380 C.2    58  TYR58       0.2290
     22  O         22.7820   72.2730   82.4910 O.2    58  TYR58      -0.2864
     23  CB        23.3590   72.5910   79.5150 C.3    58  TYR58       0.0560
     24  CG        23.3430   71.2520   78.8310 C.ar   58  TYR58      -0.0198
     25  CD1       22.4830   71.0100   77.7510 C.ar   58  TYR58      -0.0009
     26  CD2       24.1650   70.2170   79.2690 C.ar   58  TYR58      -0.0009
     27  CE1       22.4470   69.7730   77.1270 C.ar   58  TYR58       0.0417
     28  CE2       24.1330   68.9750   78.6520 C.ar   58  TYR58       0.0417
     29  CZ        23.2740   68.7580   77.5810 C.ar   58  TYR58       0.1957
     30  OH        23.2490   67.5220   76.9760 O.3    58  TYR58      -0.2866
     31  N         28.1340   77.8760   87.3560 N.3    64  HIS64      -0.1241
     32  CA        29.3700   78.6280   87.4730 C.3    64  HIS64       0.1621
     33  C         28.9510   80.0890   87.6850 C.2    64  HIS64       0.2264
     34  O         27.7670   80.4020   87.6390 O.2    64  HIS64      -0.2867
     35  CB        30.2270   78.4690   86.2090 C.3    64  HIS64       0.0745
     36  CG        29.5010   78.7770   84.9390 C.ar   64  HIS64       0.0817
     37  ND1       29.3780   77.8620   83.9130 N.ar   64  HIS64      -0.2268
     38  CD2       28.9010   79.9120   84.5080 C.ar   64  HIS64       0.1154
     39  CE1       28.7370   78.4220   82.9020 C.ar   64  HIS64       0.1986
     40  NE2       28.4360   79.6660   83.2360 N.ar   64  HIS64      -0.2212
     41  N         28.8770   82.5450   85.8490 N.3    66  GLY66      -0.1210
     42  CA        28.0870   83.0970   84.7590 C.3    66  GLY66       0.1956
     43  C         26.5960   82.8700   84.9780 C.2    66  GLY66       0.2611
     44  O         25.7770   83.7440   84.6900 O.2    66  GLY66      -0.2717
     45  N         26.2290   81.6940   85.4800 N.am   67  HIS67      -0.1975
     46  CA        24.8170   81.4150   85.7370 C.3    67  HIS67       0.1656
     47  C         24.2920   82.3880   86.7810 C.2    67  HIS67       0.2291
     48  O         23.1620   82.8580   86.6830 O.2    67  HIS67      -0.2864
     49  CB        24.6090   79.9900   86.2700 C.3    67  HIS67       0.0771
     50  CG        24.9020   78.9140   85.2700 C.ar   67  HIS67       0.0820
     51  ND1       26.0710   78.1830   85.2840 N.ar   67  HIS67      -0.2267
     52  CD2       24.1630   78.4260   84.2450 C.ar   67  HIS67       0.1154
     53  CE1       26.0360   77.2870   84.3140 C.ar   67  HIS67       0.1986
     54  NE2       24.8890   77.4130   83.6700 N.ar   67  HIS67      -0.2212
     55  N         25.5610   85.4840   87.6220 N.3    69  LEU69      -0.1231
     56  CA        25.4990   86.8280   87.0650 C.3    69  LEU69       0.1693
     57  C         24.2030   86.9980   86.2690 C.2    69  LEU69       0.2592
     58  O         23.4210   87.9320   86.5030 O.2    69  LEU69      -0.2718
     59  CB        26.6870   87.0770   86.1240 C.3    69  LEU69       0.0284
     60  CG        26.5430   88.3390   85.2680 C.3    69  LEU69       0.0019
     61  CD1       26.5840   89.5360   86.1710 C.3    69  LEU69       0.0001
     62  CD2       27.6670   88.4390   84.2220 C.3    69  LEU69       0.0001
     63  N         23.9930   86.0660   85.3400 N.am   70  ASN70      -0.1974
     64  CA        22.8390   86.0510   84.4540 C.3    70  ASN70       0.1688
     65  C         21.4850   85.9480   85.1500 C.2    70  ASN70       0.2292
     66  O         20.5440   86.6530   84.7870 O.2    70  ASN70      -0.2864
     67  CB        22.9680   84.8950   83.4500 C.3    70  ASN70       0.1181
     68  CG        21.6890   84.6780   82.6540 C.2    70  ASN70       0.2629
     69  OD1       20.8110   83.9100   83.0570 O.2    70  ASN70      -0.2716
     70  ND2       21.5630   85.3840   81.5300 N.am   70  ASN70      -0.0877
     71  N         17.6120   72.8460   79.4900 N.3    95  ASP95      -0.1239
     72  CA        18.0000   72.1930   78.2500 C.3    95  ASP95       0.1674
     73  C         18.3820   70.7740   78.6870 C.2    95  ASP95       0.2266
     74  O         19.3480   70.5970   79.4220 O.2    95  ASP95      -0.2867
     75  CB        19.1950   72.9460   77.6670 C.3    95  ASP95       0.1410
     76  CG        19.2190   72.9250   76.1530 C.2    95  ASP95       0.3668
     77  OD1       18.1420   72.7370   75.5500 O.co2  95  ASP95      -0.2456
     78  OD2       20.3150   73.1180   75.5690 O.co2  95  ASP95      -0.2456
     79  N         20.5820   73.0200   69.6770 N.3   528  TRP528     -0.1241
     80  CA        20.3320   74.4400   69.4570 C.3   528  TRP528      0.1605
     81  C         18.9050   74.5700   68.9350 C.2   528  TRP528      0.2264
     82  O         18.2200   75.5560   69.2140 O.2   528  TRP528     -0.2867
     83  CB        21.3160   75.0360   68.4350 C.3   528  TRP528      0.0550
     84  CG        22.7000   75.2720   68.9880 C.ar  528  TRP528      0.0003
     85  CD1       23.8730   74.7920   68.4860 C.ar  528  TRP528      0.0946
     86  CD2       23.0500   76.0470   70.1510 C.ar  528  TRP528      0.0152
     87  NE1       24.9310   75.2130   69.2590 N.ar  528  TRP528     -0.2442
     88  CE2       24.4560   75.9860   70.2860 C.ar  528  TRP528      0.0810
     89  CE3       22.3100   76.7860   71.0880 C.ar  528  TRP528      0.0012
     90  CZ2       25.1460   76.6380   71.3260 C.ar  528  TRP528      0.0191
     91  CZ3       22.9950   77.4390   72.1230 C.ar  528  TRP528      0.0001
     92  CH2       24.3990   77.3580   72.2300 C.ar  528  TRP528      0.0015
     93  N         16.4500   74.3720   72.1430 N.3   531  SER531     -0.1217
     94  CA        16.3190   75.6210   72.8930 C.3   531  SER531      0.1889
     95  C         15.7860   76.7080   71.9930 C.2   531  SER531      0.2288
     96  O         14.9730   77.5370   72.4070 O.2   531  SER531     -0.2866
     97  CB        17.6710   76.0550   73.4790 C.3   531  SER531      0.2089
     98  OG        18.6480   76.2040   72.4670 O.3   531  SER531     -0.2183
     99  N         21.0980   87.1220   77.9640 N.3   554  GLU554     -0.1231
    100  CA        22.0610   86.0300   78.1400 C.3   554  GLU554      0.1699
    101  C         23.4890   86.4990   77.8560 C.2   554  GLU554      0.2592
    102  O         23.7200   87.6520   77.5010 O.2   554  GLU554     -0.2718
    103  CB        21.7580   84.8490   77.1970 C.3   554  GLU554      0.0402
    104  CG        20.3520   84.2290   77.2660 C.3   554  GLU554      0.1161
    105  CD        20.0110   83.6560   78.6300 C.2   554  GLU554      0.3649
    106  OE1       20.9370   83.3110   79.3790 O.co2 554  GLU554     -0.2457
    107  OE2       18.8140   83.5330   78.9530 O.co2 554  GLU554     -0.2457
    108  N         24.4340   85.5780   77.9930 N.am  555  GLY555     -0.1957
    109  CA        25.8370   85.8700   77.7510 C.3   555  GLY555      0.1869
    110  C         26.1710   86.0890   76.2810 C.2   555  GLY555      0.2309
    111  O         25.3940   85.7160   75.3890 O.2   555  GLY555     -0.2863
    112  N         28.1300   84.6680   74.2640 N.3   557  ASP557     -0.1225
    113  CA        28.2630   83.4720   73.4370 C.3   557  ASP557      0.1805
    114  C         26.9220   83.0910   72.8320 C.2   557  ASP557      0.2597
    115  O         26.8590   82.2270   71.9500 O.2   557  ASP557     -0.2718
    116  CB        28.7870   82.2980   74.2760 C.3   557  ASP557      0.1424
    117  CG        27.9760   82.0860   75.5620 C.2   557  ASP557      0.3668
    118  OD1       27.5150   83.0840   76.1410 O.co2 557  ASP557     -0.2456
    119  OD2       27.8140   80.9360   76.0080 O.co2 557  ASP557     -0.2456
    120  N         25.8450   83.7170   73.3090 N.am  558  GLN558     -0.1979
    121  CA        24.5300   83.4040   72.7670 C.3   558  GLN558      0.1601
    122  C         24.2260   84.1220   71.4530 C.2   558  GLN558      0.2287
    123  O         23.2060   83.8480   70.8240 O.2   558  GLN558     -0.2864
    124  CB        23.4270   83.6730   73.7940 C.3   558  GLN558      0.0394
    125  CG        23.5280   82.7870   75.0410 C.3   558  GLN558      0.0908
    126  CD        23.8730   81.3450   74.7030 C.2   558  GLN558      0.2608
    127  OE1       23.2470   80.7230   73.8430 O.2   558  GLN558     -0.2717
    128  NE2       24.8710   80.8050   75.3830 N.am  558  GLN558     -0.0878
    129  N         21.7800   80.7120   71.4520 N.3   562  TRP562     -0.1241
    130  CA        20.3390   80.8230   71.6180 C.3   562  TRP562      0.1605
    131  C         19.6870   82.0260   70.9630 C.2   562  TRP562      0.2264
    132  O         18.5470   81.9300   70.5080 O.2   562  TRP562     -0.2867
    133  CB        19.9890   80.7950   73.1110 C.3   562  TRP562      0.0550
    134  CG        18.5230   80.6270   73.4140 C.ar  562  TRP562      0.0003
    135  CD1       17.7180   79.5740   73.0560 C.ar  562  TRP562      0.0946
    136  CD2       17.7170   81.4800   74.2320 C.ar  562  TRP562      0.0152
    137  NE1       16.4690   79.7170   73.6150 N.ar  562  TRP562     -0.2442
    138  CE2       16.4410   80.8770   74.3400 C.ar  562  TRP562      0.0810
    139  CE3       17.9490   82.6900   74.8900 C.ar  562  TRP562      0.0012
    140  CZ2       15.4070   81.4480   75.0820 C.ar  562  TRP562      0.0191
    141  CZ3       16.9210   83.2540   75.6300 C.ar  562  TRP562      0.0001
    142  CH2       15.6650   82.6330   75.7190 C.ar  562  TRP562      0.0015
    143  N         25.2230   90.1750   78.3190 N.3   585  HIS585     -0.1226
    144  CA        26.2530   90.5430   79.2820 C.3   585  HIS585      0.1752
    145  C         27.5230   89.7850   78.9330 C.2   585  HIS585      0.2597
    146  O         27.5000   88.8840   78.0930 O.2   585  HIS585     -0.2718
    147  CB        25.8070   90.2160   80.7220 C.3   585  HIS585      0.0759
    148  CG        25.4920   88.7700   80.9530 C.ar  585  HIS585      0.0818
    149  ND1       24.2000   88.2880   81.0010 N.ar  585  HIS585     -0.2268
    150  CD2       26.3000   87.6970   81.1270 C.ar  585  HIS585      0.1154
    151  CE1       24.2250   86.9800   81.1930 C.ar  585  HIS585      0.1986
    152  NE2       25.4860   86.5970   81.2730 N.ar  585  HIS585     -0.2212
    153  N         28.6250   90.1490   79.5760 N.am  586  GLY586     -0.1942
    154  CA        29.8840   89.4930   79.2940 C.3   586  GLY586      0.2014
    155  C         30.0790   88.2990   80.2020 C.2   586  GLY586      0.2639
    156  O         29.1520   87.8880   80.9090 O.2   586  GLY586     -0.2714
    157  N         31.2870   87.7390   80.1620 N.am  587  PHE587     -0.1959
    158  CA        31.6490   86.5960   80.9760 C.3   587  PHE587      0.1771
    159  C         32.3480   87.0790   82.2460 C.2   587  PHE587      0.2619
    160  O         32.8160   88.2250   82.3230 O.2   587  PHE587     -0.2715
    161  CB        32.6070   85.6910   80.2050 C.3   587  PHE587      0.0574
    162  CG        31.9310   84.7050   79.3030 C.ar  587  PHE587     -0.0200
    163  CD1       30.8460   85.0830   78.5160 C.ar  587  PHE587     -0.0042
    164  CD2       32.3950   83.3950   79.2280 C.ar  587  PHE587     -0.0042
    165  CE1       30.2250   84.1620   77.6600 C.ar  587  PHE587     -0.0003
    166  CE2       31.7850   82.4710   78.3800 C.ar  587  PHE587     -0.0003
    167  CZ        30.6960   82.8560   77.5920 C.ar  587  PHE587     -0.0000
    168  N         32.4320   86.1890   83.2290 N.am  588  VAL588     -0.1977
    169  CA        33.0750   86.5000   84.4940 C.3   588  VAL588      0.1596
    170  C         34.5530   86.1200   84.4290 C.2   588  VAL588      0.2287
    171  O         34.8970   84.9590   84.1800 O.2   588  VAL588     -0.2864
    172  CB        32.4000   85.7260   85.6240 C.3   588  VAL588      0.0276
    173  CG1       33.0020   86.1060   86.9710 C.3   588  VAL588      0.0022
    174  CG2       30.9130   85.9830   85.5910 C.3   588  VAL588      0.0022
    175  N         39.0620   82.2690   84.1240 N.3   596  MET596     -0.1230
    176  CA        39.1820   81.4560   85.3220 C.3   596  MET596      0.1702
    177  C         39.4960   80.0710   84.7880 C.2   596  MET596      0.2593
    178  O         38.8730   79.6120   83.8360 O.2   596  MET596     -0.2718
    179  CB        37.8750   81.4530   86.0970 C.3   596  MET596      0.0401
    180  CG        37.3350   82.8480   86.3320 C.3   596  MET596      0.0596
    181  SD        36.2770   82.9180   87.7620 S.3   596  MET596     -0.1393
    182  CE        34.9060   81.9610   87.1800 C.3   596  MET596      0.0692
    183  N         40.4720   79.4130   85.3940 N.am  597  SER597     -0.1938
    184  CA        40.8980   78.1070   84.9260 C.3   597  SER597      0.2055
    185  C         40.6890   76.9690   85.9270 C.2   597  SER597      0.2642
    186  O         39.6640   76.2980   85.8990 O.2   597  SER597     -0.2714
    187  CB        42.3730   78.2020   84.5070 C.3   597  SER597      0.2130
    188  OG        42.8820   76.9450   84.1150 O.3   597  SER597     -0.2179
    189  N         41.6680   76.7640   86.7980 N.am  598  LYS598     -0.1977
    190  CA        41.6650   75.7140   87.8240 C.3   598  LYS598      0.1596
    191  C         43.1170   75.3210   87.9720 C.2   598  LYS598      0.2287
    192  O         43.6050   75.0930   89.0770 O.2   598  LYS598     -0.2864
    193  CB        40.8380   74.4890   87.4220 C.3   598  LYS598      0.0298
    194  CG        39.6200   74.2880   88.3140 C.3   598  LYS598      0.0038
    195  CD        38.7550   73.1160   87.8740 C.3   598  LYS598      0.0206
    196  CE        37.4720   73.0540   88.6990 C.3   598  LYS598      0.1093
    197  NZ        37.7340   73.0630   90.1750 N.3   598  LYS598     -0.1314
    198  N         39.4600   80.4540   90.1770 N.3   603  VAL603     -0.1245
    199  CA        38.0670   80.2030   89.8490 C.3   603  VAL603      0.1561
    200  C         36.9810   80.9410   90.6330 C.2   603  VAL603      0.2260
    201  O         36.4050   81.8940   90.1300 O.2   603  VAL603     -0.2867
    202  CB        37.7620   78.6770   89.8640 C.3   603  VAL603      0.0252
    203  CG1       36.3080   78.4280   89.4980 C.3   603  VAL603      0.0019
    204  CG2       38.6700   77.9630   88.8620 C.3   603  VAL603      0.0019
@<TRIPOS>BOND
     1    83    84    1
     2    83    80    1
     3    85    84   ar
     4    85    87   ar
     5    81    82    2
     6    81    80    1
     7    84    86   ar
     8    87    88   ar
     9    80    79    1
    10    86    88   ar
    11    86    89   ar
    12    88    90   ar
    13   132   131    2
    14   123   122    2
    15   131   130    1
    16    89    91   ar
    17    90    92   ar
    18   129   130    1
    19   122   121    1
    20   130   133    1
    21   115   114    2
    22    95    96    2
    23    95    94    1
    24    91    92   ar
    25    93    94    1
    26    98    97    1
    27   121   120    1
    28   121   124    1
    29   114   120   am
    30   114   113    1
    31    94    97    1
    32   135   134   ar
    33   135   137   ar
    34   133   134    1
    35   134   136   ar
    36   113   112    1
    37   113   116    1
    38   137   138   ar
    39   124   125    1
    40   127   126    2
    41   136   138   ar
    42   136   139   ar
    43   116   117    1
    44   138   140   ar
    45   126   125    1
    46   126   128   am
    47   139   141   ar
    48   140   142   ar
    49   111   110    2
    50    77    76   ar
    51   117   119   ar
    52   117   118   ar
    53    78    76   ar
    54   141   142   ar
    55    76    75    1
    56   110   109    1
    57    10    11    1
    58    10     9    1
    59    30    29    1
    60    11     5    1
    61    27    29   ar
    62    27    25   ar
    63   103   104    1
    64   103   100    1
    65   104   105    1
    66   102   101    2
    67    29    28   ar
    68   167   165   ar
    69   167   166   ar
    70   165   163   ar
    71    75    72    1
    72    25    24   ar
    73   109   108    1
    74   101   108   am
    75   101   100    1
    76    99   100    1
    77   146   145    2
    78     2     3    1
    79     2     1    1
    80    72    73    1
    81    72    71    1
    82   143   144    1
    83     9     6    1
    84   166   164   ar
    85     5     3   am
    86     5     6    1
    87   163   162   ar
    88     8     7    2
    89   105   107   ar
    90   105   106   ar
    91    28    26   ar
    92    73    74    2
    93    24    26   ar
    94    24    23    1
    95   145   144    1
    96   145   153   am
    97     3     4    2
    98     6     7    1
    99   164   162   ar
   100   144   147    1
   101   154   153    1
   102   154   155    1
   103   162   161    1
   104     7    12   am
   105    23    20    1
   106   157   155   am
   107   157   158    1
   108   155   156    2
   109   161   158    1
   110    20    19    1
   111    20    21    1
   112    19    14   am
   113    12    13    1
   114    12    18    1
   115   147   148    1
   116    14    15    2
   117    14    13    1
   118   148   149   ar
   119   148   150   ar
   120    13    16    1
   121   158   159    1
   122   149   151   ar
   123   150   152   ar
   124   151   152   ar
   125    70    68   am
   126    21    22    2
   127    18    17    1
   128   159   160    2
   129   159   168   am
   130    16    17    1
   131    68    69    2
   132    68    67    1
   133    39    40   ar
   134    39    37   ar
   135   168   169    1
   136    40    38   ar
   137    67    64    1
   138    54    52   ar
   139    54    53   ar
   140   178   177    2
   141    37    36   ar
   142   188   187    1
   143   175   176    1
   144   171   170    2
   145    62    60    1
   146    52    50   ar
   147    53    51   ar
   148   170   169    1
   149    64    65    1
   150    64    63    1
   151   169   172    1
   152   187   184    1
   153    38    36   ar
   154    44    43    2
   155    42    43    1
   156    42    41    1
   157    66    65    2
   158   177   176    1
   159   177   183   am
   160   184   183    1
   161   184   185    1
   162    36    35    1
   163    43    45   am
   164    60    59    1
   165    60    61    1
   166    50    51   ar
   167    50    49    1
   168   176   179    1
   169    63    57   am
   170    45    46    1
   171   174   172    1
   172   172   173    1
   173    46    49    1
   174    46    47    1
   175   186   185    2
   176   185   189   am
   177   179   180    1
   178    59    56    1
   179    35    32    1
   180    57    58    2
   181    57    56    1
   182   180   181    1
   183    48    47    2
   184   189   190    1
   185    56    55    1
   186   182   181    1
   187    31    32    1
   188   193   190    1
   189   193   194    1
   190    32    33    1
   191    34    33    2
   192   190   191    1
   193   195   194    1
   194   195   196    1
   195   191   192    2
   196   196   197    1
   197   204   202    1
   198   203   202    1
   199   199   202    1
   200   199   198    1
   201   199   200    1
   202   201   200    2
