@<TRIPOS>MOLECULE
tmp/1queA00.pdb
 197 191 0 0 0
SMALL
GASTEIGER

@<TRIPOS>ATOM
      1  N         59.8480    2.9290   70.7830 N.3    59  SER59      -0.1217
      2  CA        59.2000    2.4410   71.9980 C.3    59  SER59       0.1889
      3  C         60.1790    1.5760   72.7490 C.2    59  SER59       0.2288
      4  O         61.1930    1.1690   72.2110 O.2    59  SER59      -0.2866
      5  CB        57.9910    1.5480   71.6650 C.3    59  SER59       0.2089
      6  OG        56.9900    2.2170   70.9240 O.3    59  SER59      -0.2183
      7  N         55.2080   -5.0820   78.1990 N.3    77  ARG77      -0.1231
      8  CA        54.2090   -4.2160   77.5880 C.3    77  ARG77       0.1694
      9  C         55.0380   -3.1030   76.9250 C.2    77  ARG77       0.2592
     10  O         56.0680   -2.6740   77.4780 O.2    77  ARG77      -0.2718
     11  CB        53.2770   -3.5960   78.6350 C.3    77  ARG77       0.0321
     12  CG        52.0480   -4.4050   78.9720 C.3    77  ARG77       0.0489
     13  CD        52.3750   -5.6470   79.7830 C.3    77  ARG77       0.2205
     14  NE        51.2150   -6.1030   80.5440 N.pl3  77  ARG77      -0.0865
     15  CZ        51.1650   -7.2500   81.2210 C.cat  77  ARG77       0.5346
     16  NH1       52.2030   -8.0740   81.2400 N.pl3  77  ARG77       0.1354
     17  NH2       50.0690   -7.5690   81.8880 N.pl3  77  ARG77       0.1354
     18  N         54.6300   -2.6790   75.7290 N.am   78  LEU78      -0.1966
     19  CA        55.3450   -1.6130   75.0200 C.3    78  LEU78       0.1728
     20  C         54.7910   -0.2250   75.3220 C.2    78  LEU78       0.2616
     21  O         53.5950   -0.0450   75.5060 O.2    78  LEU78      -0.2715
     22  CB        55.3290   -1.8450   73.5050 C.3    78  LEU78       0.0311
     23  CG        56.1080   -3.0310   72.9430 C.3    78  LEU78       0.0022
     24  CD1       55.8160   -3.1390   71.4650 C.3    78  LEU78       0.0001
     25  CD2       57.6020   -2.8840   73.1860 C.3    78  LEU78       0.0001
     26  N         55.6920    0.7490   75.3900 N.am   79  TYR79      -0.1960
     27  CA        55.3270    2.1310   75.6620 C.3    79  TYR79       0.1771
     28  C         56.1470    3.0310   74.7690 C.2    79  TYR79       0.2620
     29  O         57.3530    2.8640   74.6790 O.2    79  TYR79      -0.2715
     30  CB        55.5970    2.4810   77.1440 C.3    79  TYR79       0.0574
     31  CG        54.7350    1.7130   78.1180 C.ar   79  TYR79      -0.0198
     32  CD1       53.4370    2.1560   78.4240 C.ar   79  TYR79      -0.0009
     33  CD2       55.1770    0.4930   78.6620 C.ar   79  TYR79      -0.0009
     34  CE1       52.6020    1.4060   79.2300 C.ar   79  TYR79       0.0417
     35  CE2       54.3540   -0.2640   79.4580 C.ar   79  TYR79       0.0417
     36  CZ        53.0670    0.1920   79.7300 C.ar   79  TYR79       0.1957
     37  OH        52.2190   -0.6010   80.4410 O.3    79  TYR79      -0.2866
     38  N         55.4820    3.9740   74.1180 N.am   80  SER80      -0.1950
     39  CA        56.1740    4.9200   73.2640 C.3    80  SER80       0.1924
     40  C         57.1110    5.7390   74.1380 C.2    80  SER80       0.2314
     41  O         56.7490    6.1340   75.2430 O.2    80  SER80      -0.2863
     42  CB        55.1830    5.8780   72.6250 C.3    80  SER80       0.2116
     43  OG        54.1450    5.1950   71.9690 O.3    80  SER80      -0.2180
     44  N         55.1530    8.1270   79.2110 N.3    98  CYS98      -0.1221
     45  CA        53.8930    8.7820   79.4930 C.3    98  CYS98       0.1808
     46  C         52.9250    7.6080   79.6320 C.2    98  CYS98       0.2601
     47  O         52.4540    7.0370   78.6320 O.2    98  CYS98      -0.2717
     48  CB        53.5310    9.6630   78.2930 C.3    98  CYS98       0.0970
     49  SG        51.9410   10.4120   78.4150 S.3    98  CYS98      -0.0800
     50  N         52.6210    7.2580   80.8750 N.am   99  VAL99      -0.1965
     51  CA        51.8090    6.0910   81.1530 C.3    99  VAL99       0.1727
     52  C         50.4860    6.3520   81.8300 C.2    99  VAL99       0.2616
     53  O         50.4360    6.9710   82.8990 O.2    99  VAL99      -0.2715
     54  CB        52.6320    5.0880   82.0240 C.3    99  VAL99       0.0290
     55  CG1       51.8620    3.7790   82.2200 C.3    99  VAL99       0.0023
     56  CG2       54.0010    4.8200   81.3800 C.3    99  VAL99       0.0023
     57  N         49.4210    5.8780   81.1930 N.am  100  ARG100     -0.1977
     58  CA        48.0720    6.0290   81.7170 C.3   100  ARG100      0.1597
     59  C         47.7410    4.7660   82.5010 C.2   100  ARG100      0.2287
     60  O         48.0290    3.6660   82.0440 O.2   100  ARG100     -0.2864
     61  CB        47.0680    6.1590   80.5660 C.3   100  ARG100      0.0334
     62  CG        45.6250    6.3350   81.0320 C.3   100  ARG100      0.0492
     63  CD        44.7260    6.5370   79.8460 C.3   100  ARG100      0.2205
     64  NE        44.6110    5.2990   79.1050 N.pl3 100  ARG100     -0.0865
     65  CZ        43.5900    4.4580   79.2250 C.cat 100  ARG100      0.5346
     66  NH1       42.5920    4.7410   80.0500 N.pl3 100  ARG100      0.1354
     67  NH2       43.5850    3.3090   78.5620 N.pl3 100  ARG100      0.1354
     68  N         45.6240    1.8710   83.3520 N.3   102  LEU102     -0.1231
     69  CA        44.4770    1.2250   82.7340 C.3   102  LEU102      0.1693
     70  C         43.5840    0.6930   83.8510 C.2   102  LEU102      0.2592
     71  O         44.0620    0.0400   84.7730 O.2   102  LEU102     -0.2718
     72  CB        44.9280    0.0630   81.8370 C.3   102  LEU102      0.0284
     73  CG        43.7900   -0.7770   81.2610 C.3   102  LEU102      0.0019
     74  CD1       42.9590    0.0720   80.3300 C.3   102  LEU102      0.0001
     75  CD2       44.2980   -2.0060   80.5530 C.3   102  LEU102      0.0001
     76  N         42.3040    1.0440   83.8140 N.am  103  GLU103     -0.1966
     77  CA        41.3450    0.5440   84.8040 C.3   103  GLU103      0.1733
     78  C         39.9700    0.4590   84.1740 C.2   103  GLU103      0.2616
     79  O         39.5770    1.3470   83.4070 O.2   103  GLU103     -0.2715
     80  CB        41.3280    1.3680   86.1020 C.3   103  GLU103      0.0429
     81  CG        40.6170    2.6970   86.0620 C.3   103  GLU103      0.1163
     82  CD        40.1240    3.0860   87.4420 C.2   103  GLU103      0.3649
     83  OE1       40.9620    3.3940   88.3190 O.co2 103  GLU103     -0.2457
     84  OE2       38.8920    3.0480   87.6580 O.co2 103  GLU103     -0.2457
     85  N         39.2460   -0.6190   84.4770 N.am  104  TYR104     -0.1960
     86  CA        37.9380   -0.7860   83.8670 C.3   104  TYR104      0.1771
     87  C         36.8040   -1.5130   84.5890 C.2   104  TYR104      0.2619
     88  O         36.8200   -1.6910   85.8020 O.2   104  TYR104     -0.2715
     89  CB        38.1080   -1.3390   82.4430 C.3   104  TYR104      0.0574
     90  CG        38.8140   -2.6800   82.3460 C.ar  104  TYR104     -0.0198
     91  CD1       40.2100   -2.7570   82.3060 C.ar  104  TYR104     -0.0009
     92  CD2       38.0800   -3.8730   82.2600 C.ar  104  TYR104     -0.0009
     93  CE1       40.8610   -3.9930   82.1760 C.ar  104  TYR104      0.0417
     94  CE2       38.7100   -5.1030   82.1280 C.ar  104  TYR104      0.0417
     95  CZ        40.0990   -5.1640   82.0860 C.ar  104  TYR104      0.1957
     96  OH        40.7050   -6.3980   81.9290 O.3   104  TYR104     -0.2866
     97  N         35.8180   -1.8690   83.7610 N.am  105  LYS105     -0.1977
     98  CA        34.5210   -2.5300   84.0050 C.3   105  LYS105      0.1596
     99  C         34.2520   -3.8360   84.7880 C.2   105  LYS105      0.2287
    100  O         35.1390   -4.6550   85.0460 O.2   105  LYS105     -0.2864
    101  CB        33.8440   -2.6790   82.6300 C.3   105  LYS105      0.0298
    102  CG        34.5070   -3.7490   81.7340 C.3   105  LYS105      0.0038
    103  CD        34.1350   -3.6130   80.2480 C.3   105  LYS105      0.0206
    104  CE        34.4220   -4.9130   79.4740 C.3   105  LYS105      0.1093
    105  NZ        34.3530   -4.7220   77.9870 N.3   105  LYS105     -0.1314
    106  N         33.7190   -8.2030   83.1880 N.3   108  GLU108     -0.1245
    107  CA        35.0570   -8.7680   83.0370 C.3   108  GLU108      0.1567
    108  C         35.4520   -9.1280   84.4750 C.2   108  GLU108      0.2260
    109  O         36.3630   -8.5410   85.0630 O.2   108  GLU108     -0.2867
    110  CB        36.0320   -7.7560   82.4170 C.3   108  GLU108      0.0388
    111  CG        36.3740   -8.0070   80.9360 C.3   108  GLU108      0.1160
    112  CD        37.4620   -9.0580   80.7340 C.2   108  GLU108      0.3649
    113  OE1       38.6250   -8.7990   81.1260 O.co2 108  GLU108     -0.2457
    114  OE2       37.1580  -10.1360   80.1720 O.co2 108  GLU108     -0.2457
    115  N         42.4010   -3.4210   87.3440 N.3   114  TYR114     -0.1227
    116  CA        43.5510   -2.5570   87.1310 C.3   114  TYR114      0.1736
    117  C         44.5730   -3.2300   86.2420 C.2   114  TYR114      0.2596
    118  O         44.9170   -4.3860   86.4570 O.2   114  TYR114     -0.2718
    119  CB        44.1860   -2.1590   88.4710 C.3   114  TYR114      0.0548
    120  CG        43.2910   -1.2890   89.3200 C.ar  114  TYR114     -0.0200
    121  CD1       43.1140    0.0650   89.0100 C.ar  114  TYR114     -0.0009
    122  CD2       42.5840   -1.8270   90.4080 C.ar  114  TYR114     -0.0009
    123  CE1       42.2570    0.8560   89.7510 C.ar  114  TYR114      0.0417
    124  CE2       41.7240   -1.0430   91.1560 C.ar  114  TYR114      0.0417
    125  CZ        41.5690    0.2950   90.8180 C.ar  114  TYR114      0.1957
    126  OH        40.7170    1.0860   91.5390 O.3   114  TYR114     -0.2866
    127  N         45.0300   -2.5070   85.2200 N.am  115  GLY115     -0.1942
    128  CA        46.0320   -3.0550   84.3270 C.3   115  GLY115      0.2014
    129  C         47.2990   -3.3240   85.1140 C.2   115  GLY115      0.2639
    130  O         47.7290   -2.4720   85.8800 O.2   115  GLY115     -0.2714
    131  N         47.9330   -4.4660   84.8790 N.am  116  VAL116     -0.1963
    132  CA        49.1420   -4.8570   85.6020 C.3   116  VAL116      0.1727
    133  C         50.3490   -3.9390   85.4450 C.2   116  VAL116      0.2616
    134  O         50.8560   -3.3870   86.4220 O.2   116  VAL116     -0.2715
    135  CB        49.5720   -6.2950   85.2210 C.3   116  VAL116      0.0290
    136  CG1       50.8770   -6.6630   85.9420 C.3   116  VAL116      0.0023
    137  CG2       48.4450   -7.2820   85.5430 C.3   116  VAL116      0.0023
    138  N         50.8410   -3.7970   84.2190 N.am  117  CYS117     -0.1954
    139  CA        52.0030   -2.9740   83.9910 C.3   117  CYS117      0.1843
    140  C         51.7600   -1.4920   84.1870 C.2   117  CYS117      0.2626
    141  O         52.6090   -0.8120   84.7470 O.2   117  CYS117     -0.2714
    142  CB        52.5800   -3.2560   82.6160 C.3   117  CYS117      0.0997
    143  SG        54.2520   -2.6700   82.4570 S.3   117  CYS117     -0.0797
    144  N         50.6040   -0.9940   83.7540 N.am  118  SER118     -0.1950
    145  CA        50.2940    0.4150   83.9050 C.3   118  SER118      0.1924
    146  C         50.1130    0.8430   85.3650 C.2   118  SER118      0.2314
    147  O         50.5260    1.9280   85.7330 O.2   118  SER118     -0.2863
    148  CB        49.0820    0.8150   83.0470 C.3   118  SER118      0.2116
    149  OG        47.8620    0.2740   83.5340 O.3   118  SER118     -0.2180
    150  N         47.6120    9.1910   75.5840 N.3   157  THR157     -0.1218
    151  CA        49.0350    8.8820   75.6420 C.3   157  THR157      0.1862
    152  C         49.7020    8.8190   74.2630 C.2   157  THR157      0.2287
    153  O         50.9140    8.6800   74.1660 O.2   157  THR157     -0.2866
    154  CB        49.3040    7.5970   76.4260 C.3   157  THR157      0.1770
    155  OG1       48.5090    6.5390   75.8840 O.3   157  THR157     -0.2211
    156  CG2       48.9290    7.7920   77.8880 C.3   157  THR157      0.0375
    157  N         52.7320   10.9420   73.3610 N.3   160  ALA160     -0.1245
    158  CA        54.1180   10.5490   73.6460 C.3   160  ALA160      0.1562
    159  C         55.1110   10.7010   72.4840 C.2   160  ALA160      0.2260
    160  O         56.0990   11.4280   72.6090 O.2   160  ALA160     -0.2867
    161  CB        54.1690    9.1280   74.2620 C.3   160  ALA160      0.0290
    162  N         44.8690    5.3100   71.1860 N.3   263  LEU263     -0.1245
    163  CA        44.0770    4.0900   71.2510 C.3   263  LEU263      0.1561
    164  C         43.4000    3.8560   69.8920 C.2   263  LEU263      0.2260
    165  O         43.0780    4.7920   69.1720 O.2   263  LEU263     -0.2867
    166  CB        43.0690    4.1520   72.4130 C.3   263  LEU263      0.0270
    167  CG        43.7360    4.1350   73.8040 C.3   263  LEU263      0.0019
    168  CD1       42.7150    4.4480   74.8860 C.3   263  LEU263      0.0001
    169  CD2       44.4150    2.8100   74.0580 C.3   263  LEU263      0.0001
    170  N         50.4780    4.3700   64.6920 N.3   301  GLU301     -0.1231
    171  CA        50.7730    3.4990   65.8100 C.3   301  GLU301      0.1699
    172  C         49.6190    3.6210   66.7840 C.2   301  GLU301      0.2593
    173  O         49.5840    4.5360   67.6040 O.2   301  GLU301     -0.2718
    174  CB        52.0750    3.8780   66.5020 C.3   301  GLU301      0.0402
    175  CG        52.4220    2.9490   67.6610 C.3   301  GLU301      0.1161
    176  CD        53.6950    3.3680   68.3610 C.2   301  GLU301      0.3649
    177  OE1       54.7820    3.1110   67.8040 O.co2 301  GLU301     -0.2457
    178  OE2       53.6140    3.9580   69.4590 O.co2 301  GLU301     -0.2457
    179  N         48.6430    2.7240   66.6520 N.am  302  THR302     -0.1939
    180  CA        47.4820    2.7350   67.5320 C.3   302  THR302      0.2028
    181  C         47.4760    1.4170   68.2940 C.2   302  THR302      0.2642
    182  O         47.9830    0.4060   67.8150 O.2   302  THR302     -0.2714
    183  CB        46.1580    3.0060   66.7710 C.3   302  THR302      0.1808
    184  OG1       46.0100    2.0590   65.7140 O.3   302  THR302     -0.2208
    185  CG2       46.1540    4.4320   66.1830 C.3   302  THR302      0.0379
    186  N         46.9410    1.4490   69.5010 N.am  303  TYR303     -0.1973
    187  CA        46.9410    0.2830   70.3640 C.3   303  TYR303      0.1639
    188  C         45.7420    0.2570   71.2950 C.2   303  TYR303      0.2290
    189  O         45.7170   -0.6070   72.1910 O.2   303  TYR303     -0.2864
    190  CB        48.2200    0.2980   71.1910 C.3   303  TYR303      0.0560
    191  CG        48.5280    1.6620   71.7860 C.ar  303  TYR303     -0.0198
    192  CD1       47.9930    2.0400   73.0240 C.ar  303  TYR303     -0.0009
    193  CD2       49.3760    2.5640   71.1160 C.ar  303  TYR303     -0.0009
    194  CE1       48.2930    3.2790   73.5930 C.ar  303  TYR303      0.0417
    195  CE2       49.6860    3.8050   71.6690 C.ar  303  TYR303      0.0417
    196  CZ        49.1440    4.1540   72.9120 C.ar  303  TYR303      0.1957
    197  OH        49.4850    5.3660   73.4720 O.3   303  TYR303     -0.2866
@<TRIPOS>BOND
     1   170   171    1
     2   184   183    1
     3   171   174    1
     4   171   172    1
     5   185   183    1
     6   174   175    1
     7   179   172   am
     8   179   180    1
     9   183   180    1
    10   172   173    2
    11   180   181    1
    12   175   176    1
    13   177   176   ar
    14   182   181    2
    15   181   186   am
    16   176   178   ar
    17   165   164    2
    18   186   187    1
    19   164   163    1
    20   187   190    1
    21   187   188    1
    22     1     2    1
    23     6     5    1
    24   193   195   ar
    25   193   191   ar
    26   162   163    1
    27   190   191    1
    28   163   166    1
    29   188   189    2
    30    24    23    1
    31     5     2    1
    32   195   196   ar
    33   191   192   ar
    34    43    42    1
    35     2     3    1
    36     4     3    2
    37   166   167    1
    38   159   160    2
    39   159   158    1
    40    42    39    1
    41   196   197    1
    42   196   194   ar
    43    23    25    1
    44    23    22    1
    45   192   194   ar
    46    39    38    1
    47    39    40    1
    48   157   158    1
    49    22    19    1
    50   158   161    1
    51   167   169    1
    52   167   168    1
    53    38    28   am
    54    40    41    2
    55   153   152    2
    56   152   151    1
    57    29    28    2
    58    28    27    1
    59    19    20    1
    60    19    18    1
    61    20    26   am
    62    20    21    2
    63    26    27    1
    64   150   151    1
    65   151   154    1
    66    27    30    1
    67    18     9   am
    68   155   154    1
    69   154   156    1
    70     9    10    2
    71     9     8    1
    72    30    31    1
    73     8     7    1
    74     8    11    1
    75   105   104    1
    76    31    32   ar
    77    31    33   ar
    78    48    49    1
    79    48    45    1
    80    32    34   ar
    81    67    65    1
    82    47    46    2
    83    11    12    1
    84    33    35   ar
    85    12    13    1
    86    64    65    2
    87    64    63    1
    88    44    45    1
    89    65    66    1
    90    34    36   ar
    91    35    36   ar
    92   104   103    1
    93    45    46    1
    94    46    50   am
    95    36    37    1
    96    13    14    1
    97    63    62    1
    98   114   112   ar
    99   103   102    1
   100    74    73    1
   101    14    15    2
   102    75    73    1
   103    61    62    1
   104    61    58    1
   105   112   111    1
   106   112   113   ar
   107    50    51    1
   108   111   110    1
   109    51    52    1
   110    51    54    1
   111    57    58    1
   112    57    52   am
   113    15    16    1
   114    15    17    1
   115    73    72    1
   116    56    54    1
   117    58    59    1
   118   102   101    1
   119    52    53    2
   120    72    69    1
   121    96    95    1
   122    54    55    1
   123    60    59    2
   124    95    94   ar
   125    95    93   ar
   126    94    92   ar
   127    93    91   ar
   128    92    90   ar
   129    91    90   ar
   130    90    89    1
   131   110   107    1
   132    89    86    1
   133   143   142    1
   134   142   139    1
   135   101    98    1
   136    69    68    1
   137    69    70    1
   138   107   106    1
   139   107   108    1
   140   148   149    1
   141   148   145    1
   142    79    78    2
   143   144   145    1
   144   144   140   am
   145    97    98    1
   146    97    87   am
   147    76    70   am
   148    76    77    1
   149    70    71    2
   150    86    85    1
   151    86    87    1
   152   145   146    1
   153   139   140    1
   154   139   138    1
   155    98    99    1
   156    78    85   am
   157    78    77    1
   158   140   141    2
   159   138   133   am
   160   128   129    1
   161   128   127    1
   162   108   109    2
   163    87    88    2
   164    99   100    2
   165    77    80    1
   166   131   129   am
   167   131   132    1
   168   129   130    2
   169   127   117   am
   170   135   137    1
   171   135   132    1
   172   135   136    1
   173   146   147    2
   174   133   132    1
   175   133   134    2
   176    81    80    1
   177    81    82    1
   178   117   118    2
   179   117   116    1
   180   116   115    1
   181   116   119    1
   182    82    84   ar
   183    82    83   ar
   184   119   120    1
   185   121   120   ar
   186   121   123   ar
   187   120   122   ar
   188   123   125   ar
   189   122   124   ar
   190   125   124   ar
   191   125   126    1
