@<TRIPOS>MOLECULE
tmp/1qufA01.pdb
 192 181 0 0 0
SMALL
GASTEIGER

@<TRIPOS>ATOM
      1  N         46.6720   13.9770   84.3310 N.3    25  VAL25      -0.1245
      2  CA        45.2570   14.3100   84.4150 C.3    25  VAL25       0.1561
      3  C         45.0970   15.1600   85.6780 C.2    25  VAL25       0.2260
      4  O         45.4530   14.7340   86.7710 O.2    25  VAL25      -0.2867
      5  CB        44.4130   13.0230   84.4840 C.3    25  VAL25       0.0252
      6  CG1       42.9720   13.3360   84.8690 C.3    25  VAL25       0.0019
      7  CG2       44.4870   12.3050   83.1380 C.3    25  VAL25       0.0019
      8  N         38.7310   12.7540   83.9390 N.3    30  ILE30      -0.1231
      9  CA        38.3400   11.3720   83.9630 C.3    30  ILE30       0.1692
     10  C         39.6410   10.5660   83.8720 C.2    30  ILE30       0.2593
     11  O         40.3590   10.6520   82.8790 O.2    30  ILE30      -0.2718
     12  CB        37.4080   11.0740   82.7620 C.3    30  ILE30       0.0266
     13  CG1       36.1630   11.9550   82.8360 C.3    30  ILE30       0.0019
     14  CG2       36.9870    9.6450   82.7610 C.3    30  ILE30       0.0020
     15  CD1       35.2770   11.7320   84.0540 C.3    30  ILE30       0.0001
     16  N         40.0040    9.8650   84.9410 N.am   31  GLY31      -0.1942
     17  CA        41.2170    9.0560   84.9130 C.3    31  GLY31       0.2014
     18  C         42.4910    9.4250   85.6680 C.2    31  GLY31       0.2639
     19  O         42.5680   10.3900   86.4390 O.2    31  GLY31      -0.2714
     20  N         43.4920    8.5860   85.3970 N.am   32  ILE32      -0.1963
     21  CA        44.8500    8.6310   85.9350 C.3    32  ILE32       0.1727
     22  C         45.7620    8.2560   84.7430 C.2    32  ILE32       0.2616
     23  O         45.6530    7.1490   84.1860 O.2    32  ILE32      -0.2715
     24  CB        45.0570    7.5670   87.0730 C.3    32  ILE32       0.0290
     25  CG1       44.2880    7.9690   88.3330 C.3    32  ILE32       0.0022
     26  CG2       46.5270    7.3600   87.3550 C.3    32  ILE32       0.0023
     27  CD1       44.1630    6.8600   89.3510 C.3    32  ILE32       0.0001
     28  N         46.5220    9.2390   84.2710 N.am   33  VAL33      -0.1977
     29  CA        47.4810    9.0560   83.1890 C.3    33  VAL33       0.1596
     30  C         48.6880    9.7020   83.8420 C.2    33  VAL33       0.2287
     31  O         48.6180   10.8420   84.3080 O.2    33  VAL33      -0.2864
     32  CB        47.0790    9.8110   81.8770 C.3    33  VAL33       0.0276
     33  CG1       48.1060    9.5700   80.7600 C.3    33  VAL33       0.0022
     34  CG2       45.7420    9.3150   81.3940 C.3    33  VAL33       0.0022
     35  N         48.3310    5.3480   80.9450 N.3    93  ARG93      -0.1231
     36  CA        46.9980    5.4620   81.4720 C.3    93  ARG93       0.1694
     37  C         46.6570    4.1280   82.1650 C.2    93  ARG93       0.2591
     38  O         46.9650    3.0390   81.6610 O.2    93  ARG93      -0.2718
     39  CB        46.0140    5.7580   80.3370 C.3    93  ARG93       0.0321
     40  CG        44.5770    5.7750   80.7820 C.3    93  ARG93       0.0489
     41  CD        43.7060    4.9470   79.8850 C.3    93  ARG93       0.2205
     42  NE        43.4410    5.6670   78.6570 N.pl3  93  ARG93      -0.0865
     43  CZ        42.2480    5.7510   78.0800 C.cat  93  ARG93       0.5346
     44  NH1       41.1930    5.1310   78.6080 N.pl3  93  ARG93       0.1354
     45  NH2       42.0890    6.5610   77.0360 N.pl3  93  ARG93       0.1354
     46  N         46.0460    4.2200   83.3420 N.am   94  GLN94      -0.1979
     47  CA        45.6600    3.0350   84.0940 C.3    94  GLN94       0.1601
     48  C         44.4510    2.4070   83.4280 C.2    94  GLN94       0.2287
     49  O         43.3610    2.9710   83.4920 O.2    94  GLN94      -0.2864
     50  CB        45.2940    3.4230   85.5200 C.3    94  GLN94       0.0394
     51  CG        44.7750    2.2740   86.3880 C.3    94  GLN94       0.0908
     52  CD        44.3550    2.7470   87.7780 C.2    94  GLN94       0.2608
     53  OE1       45.1790    2.8790   88.6750 O.2    94  GLN94      -0.2717
     54  NE2       43.0640    3.0040   87.9530 N.am   94  GLN94      -0.0878
     55  N         41.2320    0.5660   82.9920 N.3    96  GLU96      -0.1245
     56  CA        40.2070    0.3030   83.9590 C.3    96  GLU96       0.1567
     57  C         38.9150    0.2440   83.1770 C.2    96  GLU96       0.2260
     58  O         38.6940    1.0240   82.2460 O.2    96  GLU96      -0.2867
     59  CB        40.1960    1.4200   84.9930 C.3    96  GLU96       0.0388
     60  CG        39.2660    1.1740   86.1030 C.3    96  GLU96       0.1160
     61  CD        39.0960    2.3760   86.9950 C.2    96  GLU96       0.3649
     62  OE1       40.0890    2.7860   87.6350 O.co2  96  GLU96      -0.2457
     63  OE2       37.9550    2.8910   87.0750 O.co2  96  GLU96      -0.2457
     64  N         44.6070   10.7060   70.4750 N.3   148  THR148     -0.1203
     65  CA        43.5030   10.5510   71.4360 C.3   148  THR148      0.1994
     66  C         44.1620    9.9350   72.6380 C.2   148  THR148      0.2618
     67  O         44.8750    8.9470   72.5070 O.2   148  THR148     -0.2717
     68  CB        42.3820    9.5700   70.9950 C.3   148  THR148      0.1784
     69  OG1       42.9300    8.2590   70.7380 O.3   148  THR148     -0.2211
     70  CG2       41.6160   10.1200   69.8030 C.3   148  THR148      0.0376
     71  N         44.0060   10.5720   73.7880 N.am  149  GLY149     -0.1942
     72  CA        44.6010   10.0470   75.0030 C.3   149  GLY149      0.2014
     73  C         46.1020    9.8610   75.0570 C.2   149  GLY149      0.2639
     74  O         46.8760   10.8150   74.9160 O.2   149  GLY149     -0.2714
     75  N         46.5020    8.6360   75.3660 N.am  150  THR150     -0.1950
     76  CA        47.9080    8.2810   75.4990 C.3   150  THR150      0.1897
     77  C         48.6280    8.2860   74.1270 C.2   150  THR150      0.2313
     78  O         49.8540    8.2100   74.0530 O.2   150  THR150     -0.2863
     79  CB        48.0540    6.9310   76.2370 C.3   150  THR150      0.1794
     80  OG1       47.1730    5.9810   75.6340 O.3   150  THR150     -0.2208
     81  CG2       47.6820    7.0640   77.7350 C.3   150  THR150      0.0378
     82  N         42.1420   14.5710   70.9610 N.3   185  GLY185     -0.1210
     83  CA        40.8150   14.3100   71.4970 C.3   185  GLY185      0.1956
     84  C         40.8010   13.6550   72.8780 C.2   185  GLY185      0.2612
     85  O         40.9200   12.4380   73.0080 O.2   185  GLY185     -0.2717
     86  N         40.5650   14.4580   73.9080 N.am  186  VAL186     -0.1966
     87  CA        40.5320   13.9940   75.2940 C.3   186  VAL186      0.1712
     88  C         39.1300   14.3150   75.7910 C.2   186  VAL186      0.2458
     89  O         38.4600   15.1880   75.2220 O.2   186  VAL186     -0.2730
     90  CB        41.5540   14.7630   76.1550 C.3   186  VAL186      0.0289
     91  CG1       42.9780   14.1630   76.0380 C.3   186  VAL186      0.0023
     92  CG2       41.5690   16.2240   75.7270 C.3   186  VAL186      0.0023
     93  N         38.6510   13.6260   76.8460 N.am  187  PRO187     -0.2727
     94  CA        37.2890   13.9330   77.3160 C.3   187  PRO187      0.1402
     95  C         37.0600   15.2790   78.0270 C.2   187  PRO187      0.2269
     96  O         35.9830   15.8900   77.8850 O.2   187  PRO187     -0.2865
     97  CB        36.9300   12.7110   78.1900 C.3   187  PRO187      0.0296
     98  CG        38.2680   12.2420   78.7130 C.3   187  PRO187      0.0237
     99  CD        39.2320   12.4730   77.5630 C.3   187  PRO187      0.0939
    100  N         42.0330   16.7000   81.2360 N.3   191  ASN191     -0.1240
    101  CA        42.5200   15.5040   80.5910 C.3   191  ASN191      0.1653
    102  C         43.4770   15.8320   79.4450 C.2   191  ASN191      0.2266
    103  O         43.9590   14.9340   78.7560 O.2   191  ASN191     -0.2867
    104  CB        41.3330   14.7130   80.0530 C.3   191  ASN191      0.1155
    105  CG        40.7670   13.7590   81.0670 C.2   191  ASN191      0.2627
    106  OD1       39.6570   13.9420   81.5610 O.2   191  ASN191     -0.2716
    107  ND2       41.5480   12.7380   81.4040 N.am  191  ASN191     -0.0877
    108  N         46.6170   16.1200   78.2870 N.3   193  LEU193     -0.1245
    109  CA        47.9410   15.7760   78.7450 C.3   193  LEU193      0.1561
    110  C         48.9650   16.7490   78.1430 C.2   193  LEU193      0.2260
    111  O         48.9810   16.9630   76.9290 O.2   193  LEU193     -0.2867
    112  CB        48.2310   14.3340   78.3460 C.3   193  LEU193      0.0270
    113  CG        47.0740   13.3750   78.6360 C.3   193  LEU193      0.0019
    114  CD1       47.4020   11.9980   78.1270 C.3   193  LEU193      0.0001
    115  CD2       46.7770   13.3470   80.1050 C.3   193  LEU193      0.0001
    116  N         35.4190   15.9150   74.4460 N.3   216  SER216     -0.1202
    117  CA        34.1330   15.2180   74.5420 C.3   216  SER216      0.2020
    118  C         33.0630   15.6850   75.5220 C.2   216  SER216      0.2618
    119  O         31.8630   15.5440   75.2380 O.2   216  SER216     -0.2717
    120  CB        34.4160   13.7700   74.8610 C.3   216  SER216      0.2103
    121  OG        35.4720   13.3390   74.0410 O.3   216  SER216     -0.2182
    122  N         33.4870   16.1500   76.6960 N.am  217  ARG217     -0.1979
    123  CA        32.5450   16.5550   77.7410 C.3   217  ARG217      0.1597
    124  C         32.2340   18.0360   77.8260 C.2   217  ARG217      0.2287
    125  O         31.3580   18.4270   78.5930 O.2   217  ARG217     -0.2864
    126  CB        33.0430   16.0920   79.1040 C.3   217  ARG217      0.0334
    127  CG        33.3880   14.6150   79.1310 C.3   217  ARG217      0.0492
    128  CD        32.2060   13.7590   78.8270 C.3   217  ARG217      0.2205
    129  NE        32.5760   12.3650   78.9960 N.pl3 217  ARG217     -0.0865
    130  CZ        32.1920   11.5960   80.0080 C.cat 217  ARG217      0.5346
    131  NH1       31.4210   12.0870   80.9730 N.pl3 217  ARG217      0.1354
    132  NH2       32.5060   10.3030   79.9950 N.pl3 217  ARG217      0.1354
    133  N         28.7980   14.4400   71.1000 N.3   226  ARG226     -0.1245
    134  CA        30.0160   14.8500   71.8070 C.3   226  ARG226      0.1563
    135  C         31.1320   15.0940   70.7540 C.2   226  ARG226      0.2260
    136  O         31.2130   14.3950   69.7400 O.2   226  ARG226     -0.2867
    137  CB        30.4890   13.7440   72.7620 C.3   226  ARG226      0.0307
    138  CG        29.4890   13.1940   73.7910 C.3   226  ARG226      0.0489
    139  CD        29.3410   14.0790   75.0170 C.3   226  ARG226      0.2205
    140  NE        28.8780   13.3870   76.2360 N.pl3 226  ARG226     -0.0865
    141  CZ        29.4850   12.3380   76.8000 C.cat 226  ARG226      0.5346
    142  NH1       30.5610   11.8070   76.2440 N.pl3 226  ARG226      0.1354
    143  NH2       29.1170   11.9240   78.0130 N.pl3 226  ARG226      0.1354
    144  N         34.4820   14.6850   68.9720 N.3   228  TYR228     -0.1227
    145  CA        35.5440   13.7070   68.8240 C.3   228  TYR228      0.1736
    146  C         36.5340   14.1650   67.8010 C.2   228  TYR228      0.2595
    147  O         36.2580   15.0810   67.0470 O.2   228  TYR228     -0.2718
    148  CB        34.9500   12.3570   68.4570 C.3   228  TYR228      0.0548
    149  CG        34.1470   11.8470   69.6340 C.ar  228  TYR228     -0.0200
    150  CD1       34.7500   11.7480   70.8780 C.ar  228  TYR228     -0.0009
    151  CD2       32.7810   11.5740   69.5260 C.ar  228  TYR228     -0.0009
    152  CE1       34.0310   11.4030   72.0060 C.ar  228  TYR228      0.0417
    153  CE2       32.0460   11.2280   70.6310 C.ar  228  TYR228      0.0417
    154  CZ        32.6730   11.1390   71.8780 C.ar  228  TYR228      0.1957
    155  OH        31.9380   10.7330   72.9790 O.3   228  TYR228     -0.2866
    156  N         37.7100   13.5400   67.8160 N.am  229  ILE229     -0.1966
    157  CA        38.7980   13.8690   66.8960 C.3   229  ILE229      0.1727
    158  C         38.3510   13.7390   65.4290 C.2   229  ILE229      0.2616
    159  O         38.8320   14.4560   64.5620 O.2   229  ILE229     -0.2715
    160  CB        40.0290   12.9790   67.2190 C.3   229  ILE229      0.0290
    161  CG1       41.2250   13.3310   66.3270 C.3   229  ILE229      0.0022
    162  CG2       39.6470   11.4970   67.1400 C.3   229  ILE229      0.0023
    163  CD1       42.3030   12.2810   66.3560 C.3   229  ILE229      0.0001
    164  N         37.3830   12.8710   65.1700 N.am  230  GLN230     -0.1977
    165  CA        36.8810   12.6560   63.8210 C.3   230  GLN230      0.1601
    166  C         36.0590   13.8410   63.3470 C.2   230  GLN230      0.2287
    167  O         36.0620   14.1950   62.1650 O.2   230  GLN230     -0.2864
    168  CB        36.0170   11.4080   63.7890 C.3   230  GLN230      0.0394
    169  CG        36.7550   10.1410   64.1680 C.3   230  GLN230      0.0908
    170  CD        36.3920    9.6400   65.5590 C.2   230  GLN230      0.2608
    171  OE1       35.8140    8.5640   65.7060 O.2   230  GLN230     -0.2717
    172  NE2       36.7060   10.4280   66.5850 N.am  230  GLN230     -0.0878
    173  N         43.8050    4.6860   71.2230 N.3   256  LEU256     -0.1245
    174  CA        43.0990    3.4050   71.1670 C.3   256  LEU256      0.1561
    175  C         42.3390    3.2550   69.8100 C.2   256  LEU256      0.2260
    176  O         41.9900    4.2310   69.1570 O.2   256  LEU256     -0.2867
    177  CB        42.1770    3.2440   72.3870 C.3   256  LEU256      0.0270
    178  CG        42.8190    3.2570   73.7850 C.3   256  LEU256      0.0019
    179  CD1       41.7830    3.7140   74.8460 C.3   256  LEU256      0.0001
    180  CD2       43.3860    1.8890   74.1250 C.3   256  LEU256      0.0001
    181  N         39.6070    2.7080   66.7240 N.3   258  GLY258     -0.1210
    182  CA        38.2690    3.2440   66.5410 C.3   258  GLY258      0.1956
    183  C         38.1920    4.5930   65.8920 C.2   258  GLY258      0.2611
    184  O         37.1760    4.9490   65.3100 O.2   258  GLY258     -0.2717
    185  N         39.2930    5.3200   65.9140 N.am  259  MET259     -0.1979
    186  CA        39.2900    6.6710   65.3480 C.3   259  MET259      0.1605
    187  C         39.6540    6.7480   63.8730 C.2   259  MET259      0.2287
    188  O         39.3820    7.7430   63.2100 O.2   259  MET259     -0.2864
    189  CB        40.1810    7.5980   66.1790 C.3   259  MET259      0.0413
    190  CG        41.1060    6.8440   67.1240 C.3   259  MET259      0.0598
    191  SD        42.7530    6.6780   66.5240 S.3   259  MET259     -0.1393
    192  CE        43.4420    8.2300   66.9860 C.3   259  MET259      0.0692
@<TRIPOS>BOND
     1   167   166    2
     2   188   187    2
     3   166   165    1
     4   168   165    1
     5   168   169    1
     6   165   164    1
     7   187   186    1
     8   169   170    1
     9   159   158    2
    10   164   158   am
    11   184   183    2
    12   186   185    1
    13   186   189    1
    14   158   157    1
    15   170   171    2
    16   170   172   am
    17   183   185   am
    18   183   182    1
    19   189   190    1
    20   161   163    1
    21   161   160    1
    22   191   192    1
    23   191   190    1
    24   182   181    1
    25   157   160    1
    26   157   156    1
    27   147   146    2
    28   162   160    1
    29   146   156   am
    30   146   145    1
    31   148   145    1
    32   148   149    1
    33   145   144    1
    34   176   175    2
    35   151   149   ar
    36   151   153   ar
    37   149   150   ar
    38   136   135    2
    39    70    68    1
    40   175   174    1
    41    64    65    1
    42   153   154   ar
    43    69    68    1
    44   135   134    1
    45   150   152   ar
    46    82    83    1
    47    68    65    1
    48   133   134    1
    49   174   173    1
    50   174   177    1
    51    65    66    1
    52    83    84    1
    53   134   137    1
    54   154   152   ar
    55   154   155    1
    56   177   178    1
    57    67    66    2
    58    66    71   am
    59   137   138    1
    60    84    85    2
    61    84    86   am
    62   178   180    1
    63   178   179    1
    64    71    72    1
    65   138   139    1
    66    86    87    1
    67   121   120    1
    68    78    77    2
    69    77    76    1
    70   116   117    1
    71   117   120    1
    72   117   118    1
    73    74    73    2
    74    72    73    1
    75   139   140    1
    76    73    75   am
    77    89    88    2
    78   119   118    2
    79    87    88    1
    80    87    90    1
    81    75    76    1
    82    76    79    1
    83   118   122   am
    84    80    79    1
    85    92    90    1
    86    88    93   am
    87    91    90    1
    88   140   141    2
    89    79    81    1
    90   142   141    1
    91   122   123    1
    92   141   143    1
    93    93    94    1
    94    93    99    1
    95   111   110    2
    96    45    43    1
    97    94    95    1
    98    94    97    1
    99    99    98    1
   100   123   124    1
   101   123   126    1
   102   124   125    2
   103    96    95    2
   104    43    44    1
   105    43    42    2
   106   114   113    1
   107   110   109    1
   108    97    98    1
   109   108   109    1
   110   112   113    1
   111   112   109    1
   112   113   115    1
   113    42    41    1
   114   103   102    2
   115   128   129    1
   116   128   127    1
   117   129   130    2
   118   126   127    1
   119   102   101    1
   120    41    40    1
   121   132   130    1
   122   130   131    1
   123   104   101    1
   124   104   105    1
   125    39    40    1
   126    39    36    1
   127   101   100    1
   128    33    32    1
   129    35    36    1
   130   105   107   am
   131   105   106    2
   132    34    32    1
   133    36    37    1
   134    38    37    2
   135    32    29    1
   136    37    46   am
   137    58    57    2
   138    14    12    1
   139    12    13    1
   140    12     9    1
   141    13    15    1
   142    11    10    2
   143    55    56    1
   144     7     5    1
   145    57    56    1
   146    29    30    1
   147    29    28    1
   148    46    47    1
   149    48    49    2
   150    48    47    1
   151    30    31    2
   152    10     9    1
   153    10    16   am
   154     8     9    1
   155    56    59    1
   156    47    50    1
   157    23    22    2
   158    28    22   am
   159     1     2    1
   160     2     5    1
   161     2     3    1
   162     5     6    1
   163    22    21    1
   164    17    16    1
   165    17    18    1
   166    59    60    1
   167    20    18   am
   168    20    21    1
   169    50    51    1
   170    18    19    2
   171     3     4    2
   172    21    24    1
   173    60    61    1
   174    51    52    1
   175    61    63   ar
   176    61    62   ar
   177    24    26    1
   178    24    25    1
   179    52    54   am
   180    52    53    2
   181    25    27    1
