@<TRIPOS>MOLECULE
tmp/1quhA00.pdb
 90 84 0 0 0
SMALL
GASTEIGER

@<TRIPOS>ATOM
      1  N         38.6060    1.0710   11.1980 N.3     3  ILE3       -0.1231
      2  CA        38.0670    2.4040   11.2420 C.3     3  ILE3        0.1692
      3  C         38.9230    3.2980   12.1170 C.2     3  ILE3        0.2592
      4  O         39.1670    4.4910   11.8040 O.2     3  ILE3       -0.2718
      5  CB        36.5840    2.4230   11.6030 C.3     3  ILE3        0.0266
      6  CG1       35.9470    3.8020   11.5480 C.3     3  ILE3        0.0019
      7  CG2       36.3650    1.9380   13.0640 C.3     3  ILE3        0.0020
      8  CD1       36.1910    4.6600   10.3110 C.3     3  ILE3        0.0001
      9  N         39.3410    2.7610   13.2460 N.am    4  PHE4       -0.1976
     10  CA        40.1770    3.6200   14.0840 C.3     4  PHE4        0.1639
     11  C         41.5140    3.9660   13.4780 C.2     4  PHE4        0.2290
     12  O         42.0430    5.0720   13.4830 O.2     4  PHE4       -0.2864
     13  CB        40.3200    2.9640   15.4690 C.3     4  PHE4        0.0560
     14  CG        39.0750    2.9870   16.3190 C.ar    4  PHE4       -0.0200
     15  CD1       38.8070    4.0630   17.1730 C.ar    4  PHE4       -0.0042
     16  CD2       38.2390    1.8670   16.3680 C.ar    4  PHE4       -0.0042
     17  CE1       37.7120    4.0630   18.0440 C.ar    4  PHE4       -0.0003
     18  CE2       37.0980    1.8770   17.1740 C.ar    4  PHE4       -0.0003
     19  CZ        36.8510    2.9620   18.0260 C.ar    4  PHE4       -0.0000
     20  N         37.2360    7.6460   20.7930 N.3    68  ASN68      -0.1240
     21  CA        36.3280    6.5030   20.9560 C.3    68  ASN68       0.1653
     22  C         34.8620    6.9090   20.9390 C.2    68  ASN68       0.2266
     23  O         33.9500    6.3140   20.3350 O.2    68  ASN68      -0.2867
     24  CB        36.6370    5.7690   22.2680 C.3    68  ASN68       0.1155
     25  CG        37.5810    4.6090   21.9890 C.2    68  ASN68       0.2627
     26  OD1       37.1330    3.5200   21.6430 O.2    68  ASN68      -0.2716
     27  ND2       38.8850    4.8640   21.9850 N.am   68  ASN68      -0.0877
     28  N         33.8040    7.9670   17.4760 N.3    71  VAL71      -0.1231
     29  CA        33.4830    6.9480   16.4940 C.3    71  VAL71       0.1692
     30  C         32.1210    6.3640   16.7720 C.2    71  VAL71       0.2592
     31  O         31.1950    6.1480   15.9320 O.2    71  VAL71      -0.2718
     32  CB        34.6550    5.9730   16.5640 C.3    71  VAL71       0.0266
     33  CG1       34.3640    4.7860   15.6040 C.3    71  VAL71       0.0020
     34  CG2       35.8690    6.7730   16.0580 C.3    71  VAL71       0.0020
     35  N         31.9980    6.1270   18.0500 N.am   72  ASP72      -0.1974
     36  CA        30.7390    5.5810   18.5090 C.3    72  ASP72       0.1709
     37  C         29.5470    6.4190   18.0890 C.2    72  ASP72       0.2293
     38  O         28.5240    5.9550   17.5730 O.2    72  ASP72      -0.2864
     39  CB        30.7970    5.5400   20.0520 C.3    72  ASP72       0.1436
     40  CG        30.3900    4.1970   20.4630 C.2    72  ASP72       0.3671
     41  OD1       30.9440    3.2210   20.0080 O.co2  72  ASP72      -0.2456
     42  OD2       29.2750    4.2180   21.1420 O.co2  72  ASP72      -0.2456
     43  N         28.7380    6.1310   14.3820 N.3    75  VAL75      -0.1245
     44  CA        27.9810    4.9730   13.9750 C.3    75  VAL75       0.1561
     45  C         26.5240    5.1160   14.3460 C.2    75  VAL75       0.2260
     46  O         25.5880    4.7870   13.5930 O.2    75  VAL75      -0.2867
     47  CB        28.5130    3.6830   14.5690 C.3    75  VAL75       0.0252
     48  CG1       27.7190    2.4480   14.0450 C.3    75  VAL75       0.0019
     49  CG2       29.9490    3.6480   14.1240 C.3    75  VAL75       0.0019
     50  N         24.0130    1.6410    4.7300 N.3    88  TYR88      -0.1241
     51  CA        25.0360    1.0810    5.5660 C.3    88  TYR88       0.1605
     52  C         24.8780   -0.4010    5.7170 C.2    88  TYR88       0.2264
     53  O         25.8590   -1.1900    5.7390 O.2    88  TYR88      -0.2867
     54  CB        24.8360    1.7670    6.9130 C.3    88  TYR88       0.0534
     55  CG        25.8870    1.4140    7.9110 C.ar   88  TYR88      -0.0201
     56  CD1       27.1270    2.0450    7.8850 C.ar   88  TYR88      -0.0009
     57  CD2       25.5990    0.4600    8.8850 C.ar   88  TYR88      -0.0009
     58  CE1       28.1150    1.7140    8.8110 C.ar   88  TYR88       0.0417
     59  CE2       26.5820    0.1080    9.7980 C.ar   88  TYR88       0.0417
     60  CZ        27.8190    0.7540    9.7700 C.ar   88  TYR88       0.1957
     61  OH        28.7720    0.3860   10.6480 O.3    88  TYR88      -0.2866
     62  N         32.0910   -4.7810    5.2200 N.3    93  ALA93      -0.1245
     63  CA        32.7510   -4.1290    6.3100 C.3    93  ALA93       0.1562
     64  C         33.7080   -3.0100    5.9300 C.2    93  ALA93       0.2260
     65  O         33.7700   -1.9690    6.6690 O.2    93  ALA93      -0.2867
     66  CB        33.4150   -5.1930    7.2070 C.3    93  ALA93       0.0290
     67  N         31.8540   -0.0980    4.9300 N.3    96  ARG96      -0.1231
     68  CA        31.1630    0.5680    6.0770 C.3    96  ARG96       0.1694
     69  C         32.0560    1.5960    6.7350 C.2    96  ARG96       0.2591
     70  O         31.6380    2.6530    7.2210 O.2    96  ARG96      -0.2718
     71  CB        30.7750   -0.4810    7.0940 C.3    96  ARG96       0.0321
     72  CG        29.4550   -1.1260    6.6260 C.3    96  ARG96       0.0489
     73  CD        28.9340   -2.1340    7.6590 C.3    96  ARG96       0.2205
     74  NE        27.7990   -2.8530    7.0430 N.pl3  96  ARG96      -0.0865
     75  CZ        27.2230   -3.8820    7.6520 C.cat  96  ARG96       0.5346
     76  NH1       27.6150   -4.2170    8.8490 N.pl3  96  ARG96       0.1354
     77  NH2       26.2280   -4.5770    7.1070 N.pl3  96  ARG96       0.1354
     78  N         33.3160    1.2120    6.7670 N.am   97  ALA97      -0.1980
     79  CA        34.2930    2.0660    7.4040 C.3    97  ALA97       0.1597
     80  C         34.4090    3.3490    6.6070 C.2    97  ALA97       0.2287
     81  O         34.5210    4.4670    7.1670 O.2    97  ALA97      -0.2864
     82  CB        35.6220    1.3590    7.5390 C.3    97  ALA97       0.0319
     83  N         31.7130    5.5100    7.5750 N.3   100  ILE100     -0.1301
     84  CA        31.8150    6.1300    8.8770 C.3   100  ILE100      0.1246
     85  C         32.7110    7.3600    8.8700 C.3   100  ILE100      0.2009
     86  O         32.4040    8.4650    9.4570 O.3   100  ILE100     -0.2188
     87  CB        32.2280    5.0870    9.8600 C.3   100  ILE100      0.0202
     88  CG1       31.1310    4.0090    9.9670 C.3   100  ILE100      0.0015
     89  CG2       32.4840    5.7780   11.2280 C.3   100  ILE100      0.0016
     90  CD1       31.7930    2.8330   10.7110 C.3   100  ILE100      0.0000
@<TRIPOS>BOND
     1    50    51    1
     2    67    68    1
     3    62    63    1
     4    51    52    1
     5    51    54    1
     6    52    53    2
     7    64    63    1
     8    64    65    2
     9    68    69    1
    10    68    71    1
    11    63    66    1
    12    80    81    2
    13    80    79    1
    14    72    71    1
    15    72    73    1
    16    69    78   am
    17    69    70    2
    18    78    79    1
    19    54    55    1
    20    74    75    2
    21    74    73    1
    22    77    75    1
    23    79    82    1
    24    83    84    1
    25    75    76    1
    26    56    55   ar
    27    56    58   ar
    28    55    57   ar
    29    58    60   ar
    30    85    84    1
    31    85    86    1
    32    84    87    1
    33    57    59   ar
    34    60    59   ar
    35    60    61    1
    36    87    88    1
    37    87    89    1
    38    88    90    1
    39     8     6    1
    40     1     2    1
    41     2     5    1
    42     2     3    1
    43     6     5    1
    44     5     7    1
    45     4     3    2
    46     3     9   am
    47     9    10    1
    48    11    12    2
    49    11    10    1
    50    46    45    2
    51    44    45    1
    52    44    43    1
    53    44    47    1
    54    48    47    1
    55    10    13    1
    56    49    47    1
    57    13    14    1
    58    33    32    1
    59    31    30    2
    60    34    32    1
    61    14    16   ar
    62    14    15   ar
    63    16    18   ar
    64    29    32    1
    65    29    30    1
    66    29    28    1
    67    30    35   am
    68    15    17   ar
    69    18    19   ar
    70    38    37    2
    71    19    17   ar
    72    35    36    1
    73    37    36    1
    74    36    39    1
    75    41    40   ar
    76    39    40    1
    77    23    22    2
    78    40    42   ar
    79    20    21    1
    80    22    21    1
    81    21    24    1
    82    26    25    2
    83    27    25   am
    84    25    24    1
