@<TRIPOS>MOLECULE
tmp/1qusA00.pdb
 119 117 0 0 0
SMALL
GASTEIGER

@<TRIPOS>ATOM
      1  N          5.0980   12.6060   12.7360 N.3   113  GLU113     -0.1245
      2  CA         5.2950   13.5510   11.6420 C.3   113  GLU113      0.1567
      3  C          5.1450   13.0010   10.2250 C.2   113  GLU113      0.2260
      4  O          4.4770   13.6130    9.3840 O.2   113  GLU113     -0.2867
      5  CB         6.6610   14.2350   11.7650 C.3   113  GLU113      0.0388
      6  CG         6.8160   15.1890   12.9640 C.3   113  GLU113      0.1160
      7  CD         5.9420   16.4220   12.8530 C.2   113  GLU113      0.3649
      8  OE1        5.5770   16.7920   11.7190 O.co2 113  GLU113     -0.2457
      9  OE2        5.6350   17.0300   13.8980 O.co2 113  GLU113     -0.2457
     10  N          7.3270   36.1100    8.5600 N.3   142  TYR142     -0.1241
     11  CA         7.8250   34.8040    8.9910 C.3   142  TYR142      0.1605
     12  C          8.1540   33.9390    7.7690 C.2   142  TYR142      0.2264
     13  O          9.2750   33.4420    7.6450 O.2   142  TYR142     -0.2867
     14  CB         6.7900   34.0810    9.8630 C.3   142  TYR142      0.0534
     15  CG         7.1520   32.6340   10.2070 C.ar  142  TYR142     -0.0201
     16  CD1        8.0420   32.3350   11.2370 C.ar  142  TYR142     -0.0009
     17  CD2        6.6010   31.5660    9.4880 C.ar  142  TYR142     -0.0009
     18  CE1        8.3760   31.0020   11.5470 C.ar  142  TYR142      0.0417
     19  CE2        6.9290   30.2360    9.7890 C.ar  142  TYR142      0.0417
     20  CZ         7.8110   29.9620   10.8120 C.ar  142  TYR142      0.1957
     21  OH         8.1330   28.6440   11.0930 O.3   142  TYR142     -0.2866
     22  N          7.3740   22.5020    5.4210 N.3   171  ALA171     -0.1245
     23  CA         8.1110   21.5750    6.2950 C.3   171  ALA171      0.1562
     24  C          8.6990   20.4080    5.4630 C.2   171  ALA171      0.2260
     25  O          8.0290   19.8620    4.5730 O.2   171  ALA171     -0.2867
     26  CB         7.2150   21.0710    7.4120 C.3   171  ALA171      0.0290
     27  N          9.9460   16.7120    9.3090 N.3   176  GLN176     -0.1231
     28  CA         9.1620   17.8870    8.8980 C.3   176  GLN176      0.1698
     29  C          9.7640   19.1720    9.4710 C.2   176  GLN176      0.2592
     30  O          9.0940   19.9540   10.1680 O.2   176  GLN176     -0.2718
     31  CB         7.6850   17.7380    9.2960 C.3   176  GLN176      0.0381
     32  CG         6.9630   16.6290    8.5120 C.3   176  GLN176      0.0905
     33  CD         6.7180   16.9800    7.0470 C.2   176  GLN176      0.2608
     34  OE1        5.7970   17.7250    6.7300 O.2   176  GLN176     -0.2717
     35  NE2        7.5350   16.4350    6.1540 N.am  176  GLN176     -0.0878
     36  N         11.0550   19.3520    9.2150 N.am  177  PHE177     -0.1962
     37  CA        11.7670   20.5600    9.6630 C.3   177  PHE177      0.1771
     38  C         11.4310   21.7450    8.7530 C.2   177  PHE177      0.2619
     39  O         11.4590   21.6240    7.5440 O.2   177  PHE177     -0.2715
     40  CB        13.2860   20.3600    9.5470 C.3   177  PHE177      0.0574
     41  CG        13.9780   20.0260   10.8420 C.ar  177  PHE177     -0.0200
     42  CD1       13.3710   19.2170   11.8000 C.ar  177  PHE177     -0.0042
     43  CD2       15.2510   20.5150   11.0950 C.ar  177  PHE177     -0.0042
     44  CE1       14.0230   18.9010   12.9960 C.ar  177  PHE177     -0.0003
     45  CE2       15.9190   20.2060   12.2900 C.ar  177  PHE177     -0.0003
     46  CZ        15.3060   19.4030   13.2370 C.ar  177  PHE177     -0.0000
     47  N         11.1630   22.9000    9.3560 N.am  178  MET178     -0.1977
     48  CA        10.9510   24.1170    8.5730 C.3   178  MET178      0.1605
     49  C         12.3710   24.5660    8.2080 C.2   178  MET178      0.2287
     50  O         13.3420   24.1810    8.8800 O.2   178  MET178     -0.2864
     51  CB        10.3260   25.2020    9.4640 C.3   178  MET178      0.0413
     52  CG         8.8660   24.9630    9.7910 C.3   178  MET178      0.0598
     53  SD         7.8600   24.9540    8.3350 S.3   178  MET178     -0.1393
     54  CE         7.9480   26.7100    7.8760 C.3   178  MET178      0.0692
     55  N         13.9500   27.2700    8.8160 N.3   180  SER180     -0.1202
     56  CA        14.6230   27.9130    9.9400 C.3   180  SER180      0.2020
     57  C         15.1500   26.8880   10.9530 C.2   180  SER180      0.2619
     58  O         16.1890   27.1080   11.5780 O.2   180  SER180     -0.2717
     59  CB        13.7210   28.9640   10.5980 C.3   180  SER180      0.2103
     60  OG        12.5010   28.3880   11.0270 O.3   180  SER180     -0.2182
     61  N         14.4710   25.7440   11.0570 N.am  181  SER181     -0.1951
     62  CA        14.9190   24.6690   11.9500 C.3   181  SER181      0.1924
     63  C         16.1460   24.0060   11.3300 C.2   181  SER181      0.2314
     64  O         17.0550   23.6080   12.0450 O.2   181  SER181     -0.2863
     65  CB        13.8180   23.6410   12.1980 C.3   181  SER181      0.2116
     66  OG        12.7950   24.1950   13.0140 O.3   181  SER181     -0.2180
     67  N         17.5360   19.3400   18.0990 N.3   210  TYR210     -0.1241
     68  CA        16.4340   20.2670   18.2890 C.3   210  TYR210      0.1605
     69  C         15.9550   20.1320   19.7420 C.2   210  TYR210      0.2264
     70  O         15.7710   21.1230   20.4410 O.2   210  TYR210     -0.2867
     71  CB        15.2880   19.8980   17.3450 C.3   210  TYR210      0.0534
     72  CG        14.1200   20.8620   17.3680 C.ar  210  TYR210     -0.0201
     73  CD1       13.1770   20.8350   18.3970 C.ar  210  TYR210     -0.0009
     74  CD2       13.9320   21.7620   16.3180 C.ar  210  TYR210     -0.0009
     75  CE1       12.0630   21.6870   18.3720 C.ar  210  TYR210      0.0417
     76  CE2       12.8380   22.6080   16.2840 C.ar  210  TYR210      0.0417
     77  CZ        11.9050   22.5660   17.3100 C.ar  210  TYR210      0.1957
     78  OH        10.8140   23.4010   17.2410 O.3   210  TYR210     -0.2866
     79  N          7.4810   22.0940   22.0890 N.3   288  ARG288     -0.1231
     80  CA         8.2810   23.0670   21.3240 C.3   288  ARG288      0.1694
     81  C          8.3780   22.6080   19.8620 C.2   288  ARG288      0.2592
     82  O          8.7400   23.3920   18.9860 O.2   288  ARG288     -0.2718
     83  CB         9.6860   23.2490   21.9080 C.3   288  ARG288      0.0321
     84  CG         9.7610   23.7920   23.3340 C.3   288  ARG288      0.0489
     85  CD         8.9410   25.0620   23.5080 C.3   288  ARG288      0.2205
     86  NE         7.5170   24.7630   23.6560 N.pl3 288  ARG288     -0.0865
     87  CZ         6.5410   25.6210   23.3840 C.cat 288  ARG288      0.5346
     88  NH1        6.8280   26.8550   22.9590 N.pl3 288  ARG288      0.1354
     89  NH2        5.2750   25.2520   23.5440 N.pl3 288  ARG288      0.1354
     90  N          8.0700   21.3340   19.5990 N.am  289  TYR289     -0.1962
     91  CA         8.0680   20.8080   18.2300 C.3   289  TYR289      0.1771
     92  C          6.7180   21.1020   17.5640 C.2   289  TYR289      0.2620
     93  O          6.6430   21.3450   16.3700 O.2   289  TYR289     -0.2715
     94  CB         8.3260   19.2940   18.2230 C.3   289  TYR289      0.0574
     95  CG         9.0870   18.8090   16.9970 C.ar  289  TYR289     -0.0198
     96  CD1        8.4200   18.4290   15.8280 C.ar  289  TYR289     -0.0009
     97  CD2       10.4770   18.7210   17.0300 C.ar  289  TYR289     -0.0009
     98  CE1        9.1390   17.9580   14.7060 C.ar  289  TYR289      0.0417
     99  CE2       11.1980   18.2700   15.9490 C.ar  289  TYR289      0.0417
    100  CZ        10.5390   17.8880   14.7920 C.ar  289  TYR289      0.1957
    101  OH        11.2890   17.4070   13.7520 O.3   289  TYR289     -0.2866
    102  N          5.6500   21.0750   18.3480 N.am  290  ASN290     -0.1958
    103  CA         4.3020   21.3660   17.8600 C.3   290  ASN290      0.1819
    104  C          3.5260   21.7480   19.1120 C.2   290  ASN290      0.2621
    105  O          3.3970   20.9400   20.0400 O.2   290  ASN290     -0.2715
    106  CB         3.6900   20.1340   17.1770 C.3   290  ASN290      0.1195
    107  CG         2.3020   20.3900   16.6250 C.2   290  ASN290      0.2630
    108  OD1        1.3860   20.7710   17.3520 O.2   290  ASN290     -0.2716
    109  ND2        2.1290   20.1410   15.3370 N.am  290  ASN290     -0.0877
    110  N          3.0570   22.9950   19.1570 N.am  291  HIS291     -0.1973
    111  CA         2.3490   23.5290   20.3290 C.3   291  HIS291      0.1656
    112  C          0.9920   22.8810   20.5990 C.2   291  HIS291      0.2291
    113  O         -0.0520   23.4950   20.3880 O.2   291  HIS291     -0.2864
    114  CB         2.1660   25.0560   20.1910 C.3   291  HIS291      0.0771
    115  CG         3.4260   25.8040   19.8840 C.ar  291  HIS291      0.0820
    116  ND1        4.6840   25.2700   20.0740 N.ar  291  HIS291     -0.2267
    117  CD2        3.6210   27.0510   19.3880 C.ar  291  HIS291      0.1154
    118  CE1        5.5980   26.1520   19.7090 C.ar  291  HIS291      0.1986
    119  NE2        4.9790   27.2400   19.2900 N.ar  291  HIS291     -0.2212
@<TRIPOS>BOND
     1    25    24    2
     2    22    23    1
     3    24    23    1
     4    35    33   am
     5    23    26    1
     6    34    33    2
     7    33    32    1
     8    39    38    2
     9    13    12    2
    10    12    11    1
    11    54    53    1
    12    49    48    1
    13    49    50    2
    14    53    52    1
    15    32    31    1
    16    10    11    1
    17    48    47    1
    18    48    51    1
    19    38    47   am
    20    38    37    1
    21    55    56    1
    22    28    31    1
    23    28    27    1
    24    28    29    1
    25    11    14    1
    26    36    29   am
    27    36    37    1
    28     4     3    2
    29    51    52    1
    30    29    30    2
    31    17    19   ar
    32    17    15   ar
    33    40    37    1
    34    40    41    1
    35    19    20   ar
    36    14    15    1
    37    56    59    1
    38    56    57    1
    39    15    16   ar
    40     3     2    1
    41    59    60    1
    42    20    21    1
    43    20    18   ar
    44    41    43   ar
    45    41    42   ar
    46    57    61   am
    47    57    58    2
    48    61    62    1
    49    43    45   ar
    50    16    18   ar
    51    63    62    1
    52    63    64    2
    53     2     5    1
    54     2     1    1
    55     8     7   ar
    56     5     6    1
    57    42    44   ar
    58    62    65    1
    59    65    66    1
    60    45    46   ar
    61     7     6    1
    62     7     9   ar
    63    44    46   ar
    64   101   100    1
    65    98   100   ar
    66    98    96   ar
    67   100    99   ar
    68   109   107   am
    69    96    95   ar
    70    99    97   ar
    71    76    74   ar
    72    76    77   ar
    73    74    72   ar
    74    93    92    2
    75   107   106    1
    76   107   108    2
    77    95    97   ar
    78    95    94    1
    79   106   103    1
    80    78    77    1
    81    77    75   ar
    82    71    72    1
    83    71    68    1
    84    72    73   ar
    85    92    91    1
    86    92   102   am
    87   103   102    1
    88   103   104    1
    89    67    68    1
    90    94    91    1
    91    91    90    1
    92    68    69    1
    93    75    73   ar
    94    82    81    2
    95   104   110   am
    96   104   105    2
    97   110   111    1
    98   119   117   ar
    99   119   118   ar
   100   117   115   ar
   101    90    81   am
   102   118   116   ar
   103    69    70    2
   104    81    80    1
   105   115   116   ar
   106   115   114    1
   107   114   111    1
   108   111   112    1
   109   113   112    2
   110    80    83    1
   111    80    79    1
   112    83    84    1
   113    88    87    1
   114    84    85    1
   115    87    89    1
   116    87    86    2
   117    85    86    1
