@<TRIPOS>MOLECULE
tmp/1qutA00.pdb
 143 141 0 0 0
SMALL
GASTEIGER

@<TRIPOS>ATOM
      1  N          1.3740   36.4200    8.1510 N.3   139  ARG139     -0.1245
      2  CA         2.6400   35.7620    8.5030 C.3   139  ARG139      0.1563
      3  C          3.7110   35.9020    7.4240 C.2   139  ARG139      0.2260
      4  O          4.6870   35.1570    7.4060 O.2   139  ARG139     -0.2867
      5  CB         2.4170   34.2830    8.8170 C.3   139  ARG139      0.0307
      6  CG         1.4210   34.0410    9.9360 C.3   139  ARG139      0.0489
      7  CD         1.4910   32.6200   10.4480 C.3   139  ARG139      0.2205
      8  NE         2.7620   32.3340   11.1130 N.pl3 139  ARG139     -0.0865
      9  CZ         3.2250   31.1060   11.3390 C.cat 139  ARG139      0.5346
     10  NH1        2.5370   30.0370   10.9470 N.pl3 139  ARG139      0.1354
     11  NH2        4.3880   30.9440   11.9480 N.pl3 139  ARG139      0.1354
     12  N          7.4230   36.1620    8.6170 N.3   142  TYR142     -0.1241
     13  CA         7.9360   34.8890    9.1080 C.3   142  TYR142      0.1605
     14  C          8.2430   33.9450    7.9470 C.2   142  TYR142      0.2264
     15  O          9.2920   33.3170    7.9200 O.2   142  TYR142     -0.2867
     16  CB         6.9260   34.2330   10.0550 C.3   142  TYR142      0.0534
     17  CG         7.2060   32.7700   10.3460 C.ar  142  TYR142     -0.0201
     18  CD1        8.1070   32.3920   11.3390 C.ar  142  TYR142     -0.0009
     19  CD2        6.5750   31.7610    9.6170 C.ar  142  TYR142     -0.0009
     20  CE1        8.3700   31.0440   11.5950 C.ar  142  TYR142      0.0417
     21  CE2        6.8340   30.4220    9.8660 C.ar  142  TYR142      0.0417
     22  CZ         7.7280   30.0700   10.8510 C.ar  142  TYR142      0.1957
     23  OH         7.9880   28.7400   11.0780 O.3   142  TYR142     -0.2866
     24  N          7.3250   22.4400    5.5430 N.3   171  ALA171     -0.1245
     25  CA         8.1000   21.5720    6.4400 C.3   171  ALA171      0.1562
     26  C          8.7120   20.4430    5.5970 C.2   171  ALA171      0.2260
     27  O          8.0540   19.9050    4.6960 O.2   171  ALA171     -0.2867
     28  CB         7.2120   21.0180    7.5490 C.3   171  ALA171      0.0290
     29  N          9.9960   16.6470    9.3430 N.3   176  GLN176     -0.1231
     30  CA         9.2220   17.8260    8.9570 C.3   176  GLN176      0.1698
     31  C          9.7900   19.1330    9.5410 C.2   176  GLN176      0.2592
     32  O          9.0790   19.9010   10.1890 O.2   176  GLN176     -0.2718
     33  CB         7.7550   17.6610    9.3630 C.3   176  GLN176      0.0381
     34  CG         7.0250   16.5580    8.6440 C.3   176  GLN176      0.0905
     35  CD         6.7490   16.8940    7.1950 C.2   176  GLN176      0.2608
     36  OE1        5.9800   17.8070    6.8950 O.2   176  GLN176     -0.2717
     37  NE2        7.3630   16.1510    6.2880 N.am  176  GLN176     -0.0878
     38  N         11.0850   19.3480    9.3340 N.am  177  PHE177     -0.1962
     39  CA        11.7810   20.5440    9.8030 C.3   177  PHE177      0.1771
     40  C         11.4530   21.7720    8.9410 C.2   177  PHE177      0.2619
     41  O         11.4190   21.6810    7.7170 O.2   177  PHE177     -0.2715
     42  CB        13.2980   20.3240    9.7060 C.3   177  PHE177      0.0574
     43  CG        13.9690   19.9570   11.0080 C.ar  177  PHE177     -0.0200
     44  CD1       13.3600   19.1050   11.9210 C.ar  177  PHE177     -0.0042
     45  CD2       15.2440   20.4450   11.2950 C.ar  177  PHE177     -0.0042
     46  CE1       14.0050   18.7450   13.0910 C.ar  177  PHE177     -0.0003
     47  CE2       15.8970   20.0890   12.4640 C.ar  177  PHE177     -0.0003
     48  CZ        15.2780   19.2350   13.3640 C.ar  177  PHE177     -0.0000
     49  N         11.2190   22.9170    9.5750 N.am  178  MET178     -0.1977
     50  CA        10.9850   24.1500    8.8250 C.3   178  MET178      0.1605
     51  C         12.3680   24.6240    8.3860 C.2   178  MET178      0.2287
     52  O         13.3800   24.2390    8.9850 O.2   178  MET178     -0.2864
     53  CB        10.3670   25.2250    9.7120 C.3   178  MET178      0.0413
     54  CG         8.8890   25.0650    9.9490 C.3   178  MET178      0.0598
     55  SD         7.9650   25.1730    8.4360 S.3   178  MET178     -0.1393
     56  CE         7.8740   26.9580    8.2120 C.3   178  MET178      0.0692
     57  N         14.0310   27.2300    8.9080 N.3   180  SER180     -0.1202
     58  CA        14.7970   27.8270   10.0040 C.3   180  SER180      0.2020
     59  C         15.2560   26.7950   11.0400 C.2   180  SER180      0.2619
     60  O         16.1960   27.0420   11.7920 O.2   180  SER180     -0.2717
     61  CB        14.0130   28.9550   10.6770 C.3   180  SER180      0.2103
     62  OG        12.8110   28.4790   11.2500 O.3   180  SER180     -0.2182
     63  N         14.5830   25.6490   11.0900 N.am  181  SER181     -0.1951
     64  CA        14.9750   24.5850   12.0090 C.3   181  SER181      0.1924
     65  C         16.1510   23.8360   11.3900 C.2   181  SER181      0.2314
     66  O         16.9910   23.2880   12.0990 O.2   181  SER181     -0.2863
     67  CB        13.8100   23.6330   12.2870 C.3   181  SER181      0.2116
     68  OG        12.8510   24.2330   13.1410 O.3   181  SER181     -0.2180
     69  N         19.1040   23.9500   13.6850 N.3   185  TYR185     -0.1241
     70  CA        19.2040   22.6610   14.3710 C.3   185  TYR185      0.1605
     71  C         19.6100   21.3900   13.6320 C.2   185  TYR185      0.2264
     72  O         20.0120   20.4130   14.2740 O.2   185  TYR185     -0.2867
     73  CB        17.9030   22.4030   15.1430 C.3   185  TYR185      0.0534
     74  CG        17.5040   23.5520   16.0440 C.ar  185  TYR185     -0.0201
     75  CD1       18.3360   23.9620   17.0920 C.ar  185  TYR185     -0.0009
     76  CD2       16.3320   24.2760   15.8070 C.ar  185  TYR185     -0.0009
     77  CE1       18.0210   25.0700   17.8730 C.ar  185  TYR185      0.0417
     78  CE2       15.9990   25.3900   16.5910 C.ar  185  TYR185      0.0417
     79  CZ        16.8540   25.7800   17.6200 C.ar  185  TYR185      0.1957
     80  OH        16.5470   26.8800   18.3890 O.3   185  TYR185     -0.2866
     81  N         17.7560   19.1440   18.1100 N.3   210  TYR210     -0.1241
     82  CA        16.6670   20.0930   18.2880 C.3   210  TYR210      0.1605
     83  C         16.2120   19.9800   19.7360 C.2   210  TYR210      0.2264
     84  O         16.1650   20.9660   20.4510 O.2   210  TYR210     -0.2867
     85  CB        15.5120   19.7460   17.3400 C.3   210  TYR210      0.0534
     86  CG        14.3670   20.7400   17.2950 C.ar  210  TYR210     -0.0201
     87  CD1       13.4130   20.7930   18.3100 C.ar  210  TYR210     -0.0009
     88  CD2       14.2140   21.5990   16.2100 C.ar  210  TYR210     -0.0009
     89  CE1       12.3320   21.6780   18.2440 C.ar  210  TYR210      0.0417
     90  CE2       13.1340   22.4920   16.1310 C.ar  210  TYR210      0.0417
     91  CZ        12.1980   22.5270   17.1480 C.ar  210  TYR210      0.1957
     92  OH        11.1380   23.4120   17.0690 O.3   210  TYR210     -0.2866
     93  N         16.5340   22.6800   22.8640 N.3   214  HIS214     -0.1241
     94  CA        15.3530   23.2060   23.5250 C.3   214  HIS214      0.1621
     95  C         15.2360   22.7710   24.9750 C.2   214  HIS214      0.2264
     96  O         14.1550   22.8190   25.5630 O.2   214  HIS214     -0.2867
     97  CB        14.0930   22.8670   22.7300 C.3   214  HIS214      0.0745
     98  CG        13.9680   23.6480   21.4610 C.ar  214  HIS214      0.0817
     99  ND1       14.5400   23.2430   20.2760 N.ar  214  HIS214     -0.2268
    100  CD2       13.3720   24.8360   21.2030 C.ar  214  HIS214      0.1154
    101  CE1       14.3070   24.1470   19.3430 C.ar  214  HIS214      0.1986
    102  NE2       13.5990   25.1230   19.8790 N.ar  214  HIS214     -0.2212
    103  N          7.8610   22.1750   21.9240 N.3   288  ARG288     -0.1231
    104  CA         8.6350   23.2220   21.2420 C.3   288  ARG288      0.1694
    105  C          8.7980   22.8570   19.7650 C.2   288  ARG288      0.2592
    106  O          9.1730   23.6940   18.9430 O.2   288  ARG288     -0.2718
    107  CB        10.0250   23.4120   21.8780 C.3   288  ARG288      0.0321
    108  CG        10.0740   24.0000   23.2900 C.3   288  ARG288      0.0489
    109  CD         9.2300   25.2410   23.4460 C.3   288  ARG288      0.2205
    110  NE         7.8270   24.8840   23.6520 N.pl3 288  ARG288     -0.0865
    111  CZ         6.7910   25.6110   23.2420 C.cat 288  ARG288      0.5346
    112  NH1        6.9860   26.7670   22.6230 N.pl3 288  ARG288      0.1354
    113  NH2        5.5540   25.1850   23.4660 N.pl3 288  ARG288      0.1354
    114  N          8.5330   21.5840   19.4720 N.am  289  TYR289     -0.1962
    115  CA         8.6230   20.9960   18.1410 C.3   289  TYR289      0.1771
    116  C          7.3010   21.2060   17.4030 C.2   289  TYR289      0.2620
    117  O          7.2670   21.3600   16.1850 O.2   289  TYR289     -0.2715
    118  CB         8.9020   19.4960   18.2930 C.3   289  TYR289      0.0574
    119  CG         9.5440   18.8380   17.1000 C.ar  289  TYR289     -0.0198
    120  CD1        8.7770   18.3440   16.0470 C.ar  289  TYR289     -0.0009
    121  CD2       10.9250   18.6640   17.0460 C.ar  289  TYR289     -0.0009
    122  CE1        9.3760   17.6830   14.9710 C.ar  289  TYR289      0.0417
    123  CE2       11.5280   18.0140   15.9900 C.ar  289  TYR289      0.0417
    124  CZ        10.7540   17.5230   14.9570 C.ar  289  TYR289      0.1957
    125  OH        11.3610   16.8550   13.9220 O.3   289  TYR289     -0.2866
    126  N          6.2110   21.1620   18.1600 N.am  290  ASN290     -0.1958
    127  CA         4.8640   21.3600   17.6410 C.3   290  ASN290      0.1819
    128  C          4.0710   21.7550   18.8760 C.2   290  ASN290      0.2621
    129  O          3.8910   20.9530   19.7870 O.2   290  ASN290     -0.2715
    130  CB         4.3350   20.0610   17.0350 C.3   290  ASN290      0.1195
    131  CG         3.0140   20.2400   16.3020 C.2   290  ASN290      0.2630
    132  OD1        1.9860   20.5660   16.9010 O.2   290  ASN290     -0.2716
    133  ND2        3.0330   19.9940   15.0010 N.am  290  ASN290     -0.0877
    134  N          3.6880   23.0260   18.9320 N.am  291  HIS291     -0.1973
    135  CA         2.9670   23.5960   20.0740 C.3   291  HIS291      0.1656
    136  C          1.5780   22.9980   20.2700 C.2   291  HIS291      0.2291
    137  O          0.5690   23.5700   19.8500 O.2   291  HIS291     -0.2864
    138  CB         2.8860   25.1230   19.9310 C.3   291  HIS291      0.0771
    139  CG         4.1300   25.7430   19.3630 C.ar  291  HIS291      0.0820
    140  ND1        5.3490   25.6940   20.0040 N.ar  291  HIS291     -0.2267
    141  CD2        4.3460   26.3890   18.1920 C.ar  291  HIS291      0.1154
    142  CE1        6.2650   26.2780   19.2520 C.ar  291  HIS291      0.1986
    143  NE2        5.6820   26.7080   18.1460 N.ar  291  HIS291     -0.2212
@<TRIPOS>BOND
     1    27    26    2
     2    24    25    1
     3    26    25    1
     4    37    35   am
     5    25    28    1
     6    36    35    2
     7    35    34    1
     8     4     3    2
     9     3     2    1
    10    41    40    2
    11    15    14    2
    12    14    13    1
    13     1     2    1
    14    56    55    1
    15    51    50    1
    16    51    52    2
    17    55    54    1
    18     2     5    1
    19    12    13    1
    20    34    33    1
    21     5     6    1
    22    50    49    1
    23    50    53    1
    24    57    58    1
    25    40    49   am
    26    40    39    1
    27    30    29    1
    28    30    33    1
    29    30    31    1
    30    13    16    1
    31    38    31   am
    32    38    39    1
    33    31    32    2
    34    19    21   ar
    35    19    17   ar
    36    42    39    1
    37    42    43    1
    38    53    54    1
    39    21    22   ar
    40     6     7    1
    41    58    61    1
    42    58    59    1
    43    16    17    1
    44    17    18   ar
    45     7     8    1
    46    61    62    1
    47    22    23    1
    48    22    20   ar
    49    10     9    1
    50    43    45   ar
    51    43    44   ar
    52    59    63   am
    53    59    60    2
    54    63    64    1
    55     8     9    2
    56    45    47   ar
    57     9    11    1
    58    18    20   ar
    59    65    64    1
    60    65    66    2
    61    44    46   ar
    62    64    67    1
    63    67    68    1
    64    47    48   ar
    65    46    48   ar
    66    71    72    2
    67    71    70    1
    68    69    70    1
    69   125   124    1
    70    70    73    1
    71   124   122   ar
    72   124   123   ar
    73   122   120   ar
    74   133   131   am
    75    73    74    1
    76    76    74   ar
    77    76    78   ar
    78   123   121   ar
    79    74    75   ar
    80   120   119   ar
    81    90    88   ar
    82    90    91   ar
    83   117   116    2
    84    88    86   ar
    85   131   132    2
    86   131   130    1
    87    78    79   ar
    88   130   127    1
    89   121   119   ar
    90    92    91    1
    91    75    77   ar
    92   119   118    1
    93    91    89   ar
    94    86    85    1
    95    86    87   ar
    96    85    82    1
    97   116   115    1
    98   116   126   am
    99    79    77   ar
   100    79    80    1
   101   127   126    1
   102   127   128    1
   103    81    82    1
   104   115   118    1
   105   115   114    1
   106   143   141   ar
   107   143   142   ar
   108   141   139   ar
   109    89    87   ar
   110    82    83    1
   111   128   134   am
   112   128   129    2
   113   134   135    1
   114   106   105    2
   115   142   140   ar
   116   101   102   ar
   117   101    99   ar
   118   139   138    1
   119   139   140   ar
   120   114   105   am
   121    83    84    2
   122   105   104    1
   123   137   136    2
   124   102   100   ar
   125   138   135    1
   126   135   136    1
   127    99    98   ar
   128   100    98   ar
   129   104   107    1
   130   104   103    1
   131    98    97    1
   132   107   108    1
   133   112   111    1
   134    97    94    1
   135    93    94    1
   136   111   113    1
   137   111   110    2
   138   108   109    1
   139   109   110    1
   140    94    95    1
   141    95    96    2
