@<TRIPOS>MOLECULE
tmp/1qv6A01.pdb
 121 114 0 0 0
SMALL
GASTEIGER

@<TRIPOS>ATOM
      1  N         -3.0510   -8.9130   25.9930 N.3    46  CYS46      -0.1235
      2  CA        -2.9380   -8.8290   24.5240 C.3    46  CYS46       0.1677
      3  C         -1.5750   -9.4410   24.0930 C.2    46  CYS46       0.2270
      4  O         -0.5910   -9.4310   24.8440 O.2    46  CYS46      -0.2867
      5  CB        -3.0590   -7.3420   24.0470 C.3    46  CYS46       0.0956
      6  SG        -2.8160   -6.9050   22.2600 S.3    46  CYS46      -0.0801
      7  N          0.5080   -8.2710   22.2270 N.3    48  SER48      -0.1217
      8  CA         1.5950   -7.2810   22.2810 C.3    48  SER48       0.1889
      9  C          2.3230   -7.2600   23.6330 C.2    48  SER48       0.2288
     10  O          3.5540   -7.0170   23.7090 O.2    48  SER48      -0.2866
     11  CB         1.1230   -5.8520   21.9330 C.3    48  SER48       0.2089
     12  OG         0.6400   -5.7860   20.6040 O.3    48  SER48      -0.2183
     13  N          8.9210   -7.0700   20.7360 N.3    57  LEU57      -0.1245
     14  CA         8.4480   -5.7060   20.7380 C.3    57  LEU57       0.1561
     15  C          9.2840   -5.0250   21.7950 C.2    57  LEU57       0.2260
     16  O          9.1950   -5.3640   22.9670 O.2    57  LEU57      -0.2867
     17  CB         6.9600   -5.6220   21.1250 C.3    57  LEU57       0.0270
     18  CG         6.3720   -4.2080   21.2630 C.3    57  LEU57       0.0019
     19  CD1        6.5670   -3.3450   20.0510 C.3    57  LEU57       0.0001
     20  CD2        4.8550   -4.3320   21.6280 C.3    57  LEU57       0.0001
     21  N         -1.9030   -2.5610   28.3200 N.3    67  HIS67      -0.1241
     22  CA        -2.4100   -1.4240   27.5990 C.3    67  HIS67       0.1621
     23  C         -3.8730   -1.5140   27.2030 C.2    67  HIS67       0.2264
     24  O         -4.4060   -0.5110   26.7220 O.2    67  HIS67      -0.2867
     25  CB        -1.5800   -1.1990   26.3440 C.3    67  HIS67       0.0745
     26  CG        -1.6190   -2.3610   25.4100 C.ar   67  HIS67       0.0817
     27  ND1       -0.9350   -3.5360   25.6600 N.ar   67  HIS67      -0.2268
     28  CD2       -2.2350   -2.5250   24.2180 C.ar   67  HIS67       0.1154
     29  CE1       -1.1590   -4.3850   24.6640 C.ar   67  HIS67       0.1986
     30  NE2       -1.9500   -3.7950   23.7880 N.ar   67  HIS67      -0.2212
     31  N         -3.6990    3.7160   24.2220 N.3    93  PHE93      -0.1241
     32  CA        -2.2550    3.4750   23.9480 C.3    93  PHE93       0.1605
     33  C         -1.7380    4.2720   22.7580 C.2    93  PHE93       0.2264
     34  O         -0.5310    4.4200   22.5680 O.2    93  PHE93      -0.2867
     35  CB        -1.9650    1.9930   23.8310 C.3    93  PHE93       0.0534
     36  CG        -2.4190    1.3740   22.5390 C.ar   93  PHE93      -0.0203
     37  CD1       -1.6520    1.5250   21.3940 C.ar   93  PHE93      -0.0042
     38  CD2       -3.6140    0.6240   22.4890 C.ar   93  PHE93      -0.0042
     39  CE1       -2.0410    0.9170   20.1430 C.ar   93  PHE93      -0.0003
     40  CE2       -4.0080   -0.0010   21.2730 C.ar   93  PHE93      -0.0003
     41  CZ        -3.2250    0.1720   20.1010 C.ar   93  PHE93      -0.0000
     42  N          5.1560    4.8990   20.7020 N.3   116  LEU116     -0.1245
     43  CA         5.3120    3.6480   19.9860 C.3   116  LEU116      0.1561
     44  C          6.4490    3.7020   18.9850 C.2   116  LEU116      0.2260
     45  O          7.1910    2.7290   18.8810 O.2   116  LEU116     -0.2867
     46  CB         4.0350    3.2630   19.2380 C.3   116  LEU116      0.0270
     47  CG         4.2800    2.0600   18.2990 C.3   116  LEU116      0.0019
     48  CD1        4.7470    0.7930   19.0490 C.3   116  LEU116      0.0001
     49  CD2        3.0470    1.7390   17.5170 C.3   116  LEU116      0.0001
     50  N          4.5030    1.9770   29.7290 N.3   140  PHE140     -0.1227
     51  CA         4.4210    1.3200   28.4450 C.3   140  PHE140      0.1736
     52  C          3.2830    1.9780   27.6370 C.2   140  PHE140      0.2595
     53  O          2.1120    1.9520   28.0690 O.2   140  PHE140     -0.2718
     54  CB         4.0950   -0.1510   28.6620 C.3   140  PHE140      0.0547
     55  CG         3.9100   -0.9240   27.3740 C.ar  140  PHE140     -0.0202
     56  CD1        4.8840   -0.9220   26.3920 C.ar  140  PHE140     -0.0042
     57  CD2        2.7400   -1.6590   27.1560 C.ar  140  PHE140     -0.0042
     58  CE1        4.7060   -1.6710   25.1880 C.ar  140  PHE140     -0.0003
     59  CE2        2.5550   -2.3960   25.9770 C.ar  140  PHE140     -0.0003
     60  CZ         3.5540   -2.3840   24.9720 C.ar  140  PHE140     -0.0000
     61  N          3.6480    2.5280   26.4800 N.am  141  LEU141     -0.1980
     62  CA         2.7310    3.2020   25.5470 C.3   141  LEU141      0.1596
     63  C          1.8830    4.1990   26.2870 C.2   141  LEU141      0.2287
     64  O          0.7530    4.4490   25.8860 O.2   141  LEU141     -0.2864
     65  CB         1.8360    2.2260   24.8160 C.3   141  LEU141      0.0297
     66  CG         2.5710    1.0110   24.2280 C.3   141  LEU141      0.0022
     67  CD1        1.5020    0.1720   23.5500 C.3   141  LEU141      0.0001
     68  CD2        3.5650    1.5740   23.2520 C.3   141  LEU141      0.0001
     69  N         -8.2290   -1.9980   23.0210 N.3   174  CYS174     -0.1235
     70  CA        -7.2570   -2.5120   22.0510 C.3   174  CYS174      0.1677
     71  C         -7.7900   -3.5240   21.0330 C.2   174  CYS174      0.2270
     72  O         -8.0350   -3.1550   19.8910 O.2   174  CYS174     -0.2867
     73  CB        -5.9930   -3.1290   22.7170 C.3   174  CYS174      0.0956
     74  SG        -4.8040   -3.4950   21.3760 S.3   174  CYS174     -0.0801
     75  N         -9.1620   -2.4450   17.2850 N.3   178  THR178     -0.1218
     76  CA        -8.1260   -2.5730   16.2740 C.3   178  THR178      0.1862
     77  C         -8.5990   -3.4640   15.1210 C.2   178  THR178      0.2287
     78  O         -8.4500   -3.1030   13.9370 O.2   178  THR178     -0.2866
     79  CB        -6.9300   -3.2750   16.9270 C.3   178  THR178      0.1770
     80  OG1       -6.3280   -2.3290   17.8380 O.3   178  THR178     -0.2211
     81  CG2       -5.7940   -3.5620   15.8390 C.3   178  THR178      0.0375
     82  N         -2.0370   -5.7530   10.1630 N.3   292  VAL292     -0.1245
     83  CA        -2.4630   -5.4140   11.5320 C.3   292  VAL292      0.1561
     84  C         -1.4530   -5.9580   12.5720 C.2   292  VAL292      0.2260
     85  O         -1.1800   -5.3420   13.6200 O.2   292  VAL292     -0.2867
     86  CB        -3.8480   -6.0160   11.8550 C.3   292  VAL292      0.0252
     87  CG1       -4.2740   -5.5690   13.2620 C.3   292  VAL292      0.0019
     88  CG2       -4.8720   -5.5650   10.7870 C.3   292  VAL292      0.0019
     89  N          1.9420   -7.0630   14.5480 N.3   294  VAL294     -0.1231
     90  CA         3.1600   -6.3060   14.8800 C.3   294  VAL294      0.1678
     91  C          4.3920   -7.1720   14.6160 C.2   294  VAL294      0.2434
     92  O          4.5150   -8.2360   15.1780 O.2   294  VAL294     -0.2733
     93  CB         3.1590   -5.9540   16.3770 C.3   294  VAL294      0.0265
     94  CG1        4.4950   -5.2870   16.7150 C.3   294  VAL294      0.0020
     95  CG2        2.0070   -4.9810   16.6840 C.3   294  VAL294      0.0020
     96  N          5.2670   -6.7240   13.7280 N.am  295  PRO295     -0.2729
     97  CA         6.3850   -7.5190   13.2480 C.3   295  PRO295      0.1401
     98  C          7.5150   -7.5480   14.2970 C.2   295  PRO295      0.2269
     99  O          7.4850   -6.7480   15.2160 O.2   295  PRO295     -0.2865
    100  CB         6.8070   -6.7820   11.9830 C.3   295  PRO295      0.0296
    101  CG         6.4900   -5.3970   12.2590 C.3   295  PRO295      0.0237
    102  CD         5.2200   -5.3840   13.1200 C.3   295  PRO295      0.0939
    103  N         -2.4830    1.4000   13.1320 N.3   318  ILE318     -0.1231
    104  CA        -2.4700    1.2150   14.5680 C.3   318  ILE318      0.1692
    105  C         -3.8920    1.4560   15.0350 C.2   318  ILE318      0.2592
    106  O         -4.5460    2.3660   14.5210 O.2   318  ILE318     -0.2718
    107  CB        -1.5850    2.3310   15.2450 C.3   318  ILE318      0.0266
    108  CG1       -0.1770    2.3440   14.6130 C.3   318  ILE318      0.0019
    109  CG2       -1.5500    2.1210   16.7380 C.3   318  ILE318      0.0020
    110  CD1        0.5330    1.0830   14.8320 C.3   318  ILE318      0.0001
    111  N         -4.3800    0.5960   15.9070 N.am  319  PHE319     -0.1976
    112  CA        -5.6690    0.7770   16.6030 C.3   319  PHE319      0.1639
    113  C         -6.8290    0.9390   15.6230 C.2   319  PHE319      0.2290
    114  O         -7.7290    1.7530   15.8310 O.2   319  PHE319     -0.2864
    115  CB        -5.5630    1.9910   17.5560 C.3   319  PHE319      0.0560
    116  CG        -6.6790    2.0710   18.5690 C.ar  319  PHE319     -0.0200
    117  CD1       -6.9900    0.9780   19.3840 C.ar  319  PHE319     -0.0042
    118  CD2       -7.4350    3.2350   18.6860 C.ar  319  PHE319     -0.0042
    119  CE1       -7.9970    1.0480   20.3360 C.ar  319  PHE319     -0.0003
    120  CE2       -8.4640    3.2950   19.6160 C.ar  319  PHE319     -0.0003
    121  CZ        -8.7520    2.1730   20.4230 C.ar  319  PHE319     -0.0000
@<TRIPOS>BOND
     1    82    83    1
     2    88    86    1
     3    83    86    1
     4    83    84    1
     5    86    87    1
     6   100   101    1
     7   100    97    1
     8   101   102    1
     9    84    85    2
    10   102    96    1
    11   103   104    1
    12    97    96    1
    13    97    98    1
    14    96    91   am
    15    78    77    2
    16    98    99    2
    17   106   105    2
    18    89    90    1
    19   104   105    1
    20   104   107    1
    21   108   110    1
    22   108   107    1
    23    91    90    1
    24    91    92    2
    25    90    93    1
    26   105   111   am
    27    77    76    1
    28   107   109    1
    29   113   114    2
    30   113   112    1
    31    81    79    1
    32   111   112    1
    33    76    79    1
    34    76    75    1
    35    93    95    1
    36    93    94    1
    37   112   115    1
    38    79    80    1
    39    49    47    1
    40   115   116    1
    41    47    48    1
    42    47    46    1
    43   116   118   ar
    44   116   117   ar
    45   118   120   ar
    46    45    44    2
    47    44    43    1
    48    46    43    1
    49   117   119   ar
    50   120   121   ar
    51    72    71    2
    52    43    42    1
    53    19    18    1
    54    41    39   ar
    55    41    40   ar
    56    39    37   ar
    57   119   121   ar
    58    12    11    1
    59    13    14    1
    60    14    17    1
    61    14    15    1
    62    71    70    1
    63    17    18    1
    64    18    20    1
    65    40    38   ar
    66    74    73    1
    67    37    36   ar
    68    15    16    2
    69    11     8    1
    70    70    73    1
    71    70    69    1
    72     7     8    1
    73     6     5    1
    74     8     9    1
    75    38    36   ar
    76    36    35    1
    77    34    33    2
    78    33    32    1
    79    68    66    1
    80    67    66    1
    81     9    10    2
    82    30    28   ar
    83    30    29   ar
    84    35    32    1
    85    32    31    1
    86     5     2    1
    87     3     2    1
    88     3     4    2
    89    28    26   ar
    90    66    65    1
    91     2     1    1
    92    29    27   ar
    93    65    62    1
    94    60    58   ar
    95    60    59   ar
    96    58    56   ar
    97    26    27   ar
    98    26    25    1
    99    62    63    1
   100    62    61    1
   101    64    63    2
   102    59    57   ar
   103    25    22    1
   104    56    55   ar
   105    61    52   am
   106    24    23    2
   107    57    55   ar
   108    23    22    1
   109    55    54    1
   110    22    21    1
   111    52    53    2
   112    52    51    1
   113    51    54    1
   114    51    50    1
