@<TRIPOS>MOLECULE
tmp/1qviA00.pdb
 206 201 0 0 0
SMALL
GASTEIGER

@<TRIPOS>ATOM
      1  N         -6.6690    3.7080   52.9790 N.3   107  ILE107     -0.1231
      2  CA        -7.8350    2.8410   52.9620 C.3   107  ILE107      0.1692
      3  C         -9.0890    3.4420   53.6000 C.2   107  ILE107      0.2592
      4  O        -10.1750    2.8630   53.5040 O.2   107  ILE107     -0.2718
      5  CB        -7.5190    1.4840   53.6450 C.3   107  ILE107      0.0266
      6  CG1       -7.4850    1.6490   55.1600 C.3   107  ILE107      0.0019
      7  CG2       -6.1720    0.9580   53.1810 C.3   107  ILE107      0.0020
      8  CD1       -7.2940    0.3330   55.8900 C.3   107  ILE107      0.0001
      9  N         -8.9580    4.5950   54.2530 N.am  108  TYR108     -0.1976
     10  CA       -10.1240    5.2270   54.8790 C.3   108  TYR108      0.1639
     11  C        -10.4740    6.5390   54.1920 C.2   108  TYR108      0.2290
     12  O         -9.5960    7.3280   53.8510 O.2   108  TYR108     -0.2864
     13  CB        -9.8810    5.4820   56.3780 C.3   108  TYR108      0.0560
     14  CG        -9.7360    4.2180   57.1960 C.ar  108  TYR108     -0.0198
     15  CD1      -10.8210    3.3780   57.4020 C.ar  108  TYR108     -0.0009
     16  CD2       -8.4990    3.8310   57.7040 C.ar  108  TYR108     -0.0009
     17  CE1      -10.6840    2.1830   58.0850 C.ar  108  TYR108      0.0417
     18  CE2       -8.3480    2.6370   58.3900 C.ar  108  TYR108      0.0417
     19  CZ        -9.4440    1.8120   58.5760 C.ar  108  TYR108      0.1957
     20  OH        -9.3040    0.6070   59.2340 O.3   108  TYR108     -0.2866
     21  N        -10.7120   -2.7610   52.0220 N.3   119  ASN119     -0.1226
     22  CA        -9.8050   -3.7840   52.5360 C.3   119  ASN119      0.1770
     23  C         -8.4140   -3.6710   51.9090 C.2   119  ASN119      0.2439
     24  O         -8.2610   -3.7330   50.6950 O.2   119  ASN119     -0.2733
     25  CB       -10.3820   -5.1720   52.2650 C.3   119  ASN119      0.1168
     26  CG        -9.5790   -6.2750   52.9170 C.2   119  ASN119      0.2627
     27  OD1       -8.4010   -6.1020   53.2590 O.2   119  ASN119     -0.2716
     28  ND2      -10.2090   -7.4270   53.0860 N.am  119  ASN119     -0.0877
     29  N         -7.3740   -3.5210   52.7410 N.am  120  PRO120     -0.2718
     30  CA        -6.0030   -3.3950   52.2380 C.3   120  PRO120      0.1535
     31  C         -5.3460   -4.7070   51.8430 C.2   120  PRO120      0.2599
     32  O         -4.5150   -4.7520   50.9280 O.2   120  PRO120     -0.2715
     33  CB        -5.2820   -2.7110   53.4010 C.3   120  PRO120      0.0310
     34  CG        -5.9560   -3.3050   54.5920 C.3   120  PRO120      0.0237
     35  CD        -7.4230   -3.2970   54.2020 C.3   120  PRO120      0.0939
     36  N         -5.7240   -5.7720   52.5410 N.am  121  TYR121     -0.1960
     37  CA        -5.1730   -7.1020   52.2960 C.3   121  TYR121      0.1771
     38  C         -3.6890   -7.1640   52.6020 C.2   121  TYR121      0.2619
     39  O         -2.9140   -7.7720   51.8720 O.2   121  TYR121     -0.2715
     40  CB        -5.4400   -7.5520   50.8550 C.3   121  TYR121      0.0574
     41  CG        -6.7990   -8.1910   50.7030 C.ar  121  TYR121     -0.0198
     42  CD1       -7.1150   -9.3480   51.4080 C.ar  121  TYR121     -0.0009
     43  CD2       -7.7890   -7.6130   49.9110 C.ar  121  TYR121     -0.0009
     44  CE1       -8.3780   -9.9150   51.3430 C.ar  121  TYR121      0.0417
     45  CE2       -9.0700   -8.1780   49.8390 C.ar  121  TYR121      0.0417
     46  CZ        -9.3540   -9.3260   50.5630 C.ar  121  TYR121      0.1957
     47  OH       -10.6160   -9.8850   50.5420 O.3   121  TYR121     -0.2866
     48  N         -3.3110   -6.5270   53.7020 N.am  122  ARG122     -0.1963
     49  CA        -1.9360   -6.4890   54.1690 C.3   122  ARG122      0.1729
     50  C         -1.9140   -5.5790   55.3810 C.2   122  ARG122      0.2616
     51  O         -2.7560   -4.6950   55.5220 O.2   122  ARG122     -0.2715
     52  CB        -1.0050   -5.9210   53.1080 C.3   122  ARG122      0.0348
     53  CG        -1.2710   -4.4730   52.8380 C.3   122  ARG122      0.0492
     54  CD        -0.1040   -3.8070   52.1580 C.3   122  ARG122      0.2205
     55  NE        -0.4780   -2.4810   51.7000 N.pl3 122  ARG122     -0.0865
     56  CZ         0.3770   -1.4880   51.5130 C.cat 122  ARG122      0.5346
     57  NH1        1.6710   -1.6700   51.7490 N.pl3 122  ARG122      0.1354
     58  NH2       -0.0700   -0.3120   51.0920 N.pl3 122  ARG122      0.1354
     59  N         -0.9410   -5.7860   56.2520 N.am  123  ARG123     -0.1963
     60  CA        -0.8390   -4.9860   57.4570 C.3   123  ARG123      0.1729
     61  C         -0.3000   -3.5920   57.1920 C.2   123  ARG123      0.2616
     62  O          0.6660   -3.4200   56.4500 O.2   123  ARG123     -0.2715
     63  CB         0.0320   -5.7050   58.4870 C.3   123  ARG123      0.0348
     64  CG        -0.7610   -6.3100   59.6340 C.3   123  ARG123      0.0492
     65  CD        -1.8650   -7.2320   59.1470 C.3   123  ARG123      0.2205
     66  NE        -2.8340   -7.4870   60.2080 N.pl3 123  ARG123     -0.0865
     67  CZ        -3.9550   -8.1830   60.0530 C.cat 123  ARG123      0.5346
     68  NH1       -4.2580   -8.7030   58.8710 N.pl3 123  ARG123      0.1354
     69  NH2       -4.7750   -8.3560   61.0830 N.pl3 123  ARG123      0.1354
     70  N         -0.9490   -2.6040   57.7990 N.am  124  LEU124     -0.1977
     71  CA        -0.5580   -1.2110   57.6560 C.3   124  LEU124      0.1596
     72  C         -0.1580   -0.6980   59.0390 C.2   124  LEU124      0.2287
     73  O         -0.7860   -1.0340   60.0440 O.2   124  LEU124     -0.2864
     74  CB        -1.7230   -0.3980   57.0950 C.3   124  LEU124      0.0297
     75  CG        -2.2480   -0.8540   55.7290 C.3   124  LEU124      0.0022
     76  CD1       -3.4710   -0.0480   55.3530 C.3   124  LEU124      0.0001
     77  CD2       -1.1630   -0.6970   54.6820 C.3   124  LEU124      0.0001
     78  N         -2.1160    1.4420   62.9430 N.3   127  TYR127     -0.1241
     79  CA        -2.8730    1.1240   64.1500 C.3   127  TYR127      0.1605
     80  C         -2.0350    1.0810   65.4370 C.2   127  TYR127      0.2264
     81  O         -2.5140    0.6010   66.4650 O.2   127  TYR127     -0.2867
     82  CB        -3.5980   -0.2140   63.9940 C.3   127  TYR127      0.0534
     83  CG        -4.4790   -0.3270   62.7740 C.ar  127  TYR127     -0.0201
     84  CD1       -3.9760   -0.8120   61.5680 C.ar  127  TYR127     -0.0009
     85  CD2       -5.8160    0.0650   62.8190 C.ar  127  TYR127     -0.0009
     86  CE1       -4.7840   -0.9010   60.4350 C.ar  127  TYR127      0.0417
     87  CE2       -6.6290   -0.0170   61.6960 C.ar  127  TYR127      0.0417
     88  CZ        -6.1070   -0.4980   60.5090 C.ar  127  TYR127      0.1957
     89  OH        -6.9050   -0.5520   59.3960 O.3   127  TYR127     -0.2866
     90  N        -19.0400  -10.3780   52.4800 N.3   173  SER173     -0.1202
     91  CA       -18.1130  -11.2950   53.1230 C.3   173  SER173      0.2020
     92  C        -16.6760  -10.9390   52.7510 C.2   173  SER173      0.2619
     93  O        -16.3420  -10.7560   51.5800 O.2   173  SER173     -0.2717
     94  CB       -18.4450  -12.7310   52.6930 C.3   173  SER173      0.2103
     95  OG       -17.5970  -13.6930   53.2860 O.3   173  SER173     -0.2182
     96  N        -15.8290  -10.8110   53.7600 N.am  174  GLY174     -0.1942
     97  CA       -14.4380  -10.4840   53.5040 C.3   174  GLY174      0.2014
     98  C        -14.0890   -9.0280   53.2720 C.2   174  GLY174      0.2639
     99  O        -12.9330   -8.6990   53.0180 O.2   174  GLY174     -0.2714
    100  N        -15.0670   -8.1430   53.3560 N.am  175  ALA175     -0.1963
    101  CA       -14.7910   -6.7290   53.1440 C.3   175  ALA175      0.1728
    102  C        -13.9420   -6.1240   54.2830 C.2   175  ALA175      0.2617
    103  O        -13.3400   -5.0500   54.1350 O.2   175  ALA175     -0.2715
    104  CB       -16.0890   -5.9850   53.0010 C.3   175  ALA175      0.0334
    105  N        -13.8940   -6.8120   55.4190 N.am  176  GLY176     -0.1940
    106  CA       -13.1080   -6.3080   56.5290 C.3   176  GLY176      0.2014
    107  C        -13.8780   -5.8410   57.7520 C.2   176  GLY176      0.2639
    108  O        -13.3960   -4.9990   58.5080 O.2   176  GLY176     -0.2714
    109  N        -15.0710   -6.3780   57.9650 N.am  177  LYS177     -0.1963
    110  CA       -15.8710   -5.9890   59.1200 C.3   177  LYS177      0.1728
    111  C        -15.1830   -6.3460   60.4280 C.2   177  LYS177      0.2617
    112  O        -14.8820   -5.4720   61.2400 O.2   177  LYS177     -0.2715
    113  CB       -17.2430   -6.6630   59.0690 C.3   177  LYS177      0.0311
    114  CG       -18.0670   -6.2530   57.8590 C.3   177  LYS177      0.0038
    115  CD       -19.4650   -6.8550   57.8850 C.3   177  LYS177      0.0206
    116  CE       -19.4330   -8.3540   57.6520 C.3   177  LYS177      0.1093
    117  NZ       -18.7620   -8.7280   56.3530 N.3   177  LYS177     -0.1314
    118  N        -14.9380   -7.6380   60.6240 N.am  178  THR178     -0.1937
    119  CA       -14.2950   -8.1180   61.8310 C.3   178  THR178      0.2028
    120  C        -12.9900   -7.3870   62.1480 C.2   178  THR178      0.2642
    121  O        -12.7640   -6.9630   63.2870 O.2   178  THR178     -0.2714
    122  CB       -14.0520   -9.6330   61.7330 C.3   178  THR178      0.1808
    123  OG1      -15.2710  -10.3080   62.0620 O.3   178  THR178     -0.2208
    124  CG2      -12.9300  -10.0880   62.6800 C.3   178  THR178      0.0379
    125  N        -12.1340   -7.2310   61.1470 N.am  179  GLU179     -0.1963
    126  CA       -10.8750   -6.5430   61.3580 C.3   179  GLU179      0.1733
    127  C        -11.1140   -5.1520   61.9000 C.2   179  GLU179      0.2616
    128  O        -10.4440   -4.7220   62.8340 O.2   179  GLU179     -0.2715
    129  CB       -10.0800   -6.4560   60.0580 C.3   179  GLU179      0.0429
    130  CG        -9.4230   -7.7580   59.6490 C.3   179  GLU179      0.1163
    131  CD        -8.5100   -8.3200   60.7230 C.2   179  GLU179      0.3649
    132  OE1       -9.0090   -8.9510   61.6790 O.co2 179  GLU179     -0.2457
    133  OE2       -7.2840   -8.1250   60.6140 O.co2 179  GLU179     -0.2457
    134  N        -12.0730   -4.4400   61.3220 N.am  180  ASN180     -0.1972
    135  CA       -12.3630   -3.0850   61.7780 C.3   180  ASN180      0.1688
    136  C        -13.0280   -3.0750   63.1570 C.2   180  ASN180      0.2292
    137  O        -12.7620   -2.1940   63.9720 O.2   180  ASN180     -0.2864
    138  CB       -13.2010   -2.3410   60.7160 C.3   180  ASN180      0.1181
    139  CG       -12.3600   -1.9300   59.5140 C.2   180  ASN180      0.2629
    140  OD1      -11.6710   -0.9130   59.5550 O.2   180  ASN180     -0.2716
    141  ND2      -12.3790   -2.7420   58.4550 N.am  180  ASN180     -0.0877
    142  N        -10.2000   -3.1800   65.8360 N.3   183  LYS183     -0.1245
    143  CA        -9.5210   -1.9070   66.0670 C.3   183  LYS183      0.1561
    144  C        -10.3510   -0.8780   66.8210 C.2   183  LYS183      0.2260
    145  O         -9.8290   -0.1260   67.6280 O.2   183  LYS183     -0.2867
    146  CB        -9.0620   -1.3020   64.7440 C.3   183  LYS183      0.0271
    147  CG        -8.1100   -2.1900   63.9670 C.3   183  LYS183      0.0035
    148  CD        -6.9260   -2.5910   64.8010 C.3   183  LYS183      0.0206
    149  CE        -6.0230   -3.5290   64.0290 C.3   183  LYS183      0.1093
    150  NZ        -5.3310   -4.4650   64.9580 N.3   183  LYS183     -0.1314
    151  N        -13.3270  -15.7220   52.5200 N.3   222  ASN222     -0.1225
    152  CA       -12.5270  -15.2670   53.6400 C.3   222  ASN222      0.1785
    153  C        -11.8450  -16.4330   54.3450 C.2   222  ASN222      0.2597
    154  O        -12.5060  -17.3960   54.7260 O.2   222  ASN222     -0.2718
    155  CB       -13.4500  -14.5330   54.6250 C.3   222  ASN222      0.1169
    156  CG       -12.6880  -13.7160   55.6660 C.2   222  ASN222      0.2627
    157  OD1      -11.5190  -13.9750   55.9550 O.2   222  ASN222     -0.2716
    158  ND2      -13.3630  -12.7300   56.2420 N.am  222  ASN222     -0.0877
    159  N        -10.5270  -16.3510   54.5150 N.am  223  ASN223     -0.1960
    160  CA        -9.7770  -17.4000   55.2070 C.3   223  ASN223      0.1819
    161  C        -10.0840  -17.4210   56.7030 C.2   223  ASN223      0.2621
    162  O         -9.7890  -18.3880   57.3930 O.2   223  ASN223     -0.2715
    163  CB        -8.2780  -17.1990   54.9940 C.3   223  ASN223      0.1195
    164  CG        -7.8570  -17.5340   53.5880 C.2   223  ASN223      0.2630
    165  OD1       -6.8640  -17.0200   53.0730 O.2   223  ASN223     -0.2716
    166  ND2       -8.6170  -18.4090   52.9540 N.am  223  ASN223     -0.0877
    167  N        -10.6840  -16.3490   57.1970 N.am  224  ASN224     -0.1958
    168  CA       -11.0260  -16.2400   58.6040 C.3   224  ASN224      0.1819
    169  C        -12.4590  -15.7400   58.7210 C.2   224  ASN224      0.2622
    170  O        -12.7630  -14.8870   59.5470 O.2   224  ASN224     -0.2715
    171  CB       -10.0790  -15.2640   59.2970 C.3   224  ASN224      0.1195
    172  CG       -10.3730  -15.1210   60.7750 C.2   224  ASN224      0.2630
    173  OD1      -10.2380  -14.0400   61.3470 O.2   224  ASN224     -0.2716
    174  ND2      -10.7770  -16.2150   61.4040 N.am  224  ASN224     -0.0877
    175  N        -13.3370  -16.2790   57.8840 N.am  225  SER225     -0.1936
    176  CA       -14.7390  -15.8900   57.8920 C.3   225  SER225      0.2055
    177  C        -15.4110  -16.1120   59.2430 C.2   225  SER225      0.2643
    178  O        -15.2390  -17.1490   59.8890 O.2   225  SER225     -0.2714
    179  CB       -15.5220  -16.6510   56.8130 C.3   225  SER225      0.2130
    180  OG       -16.9080  -16.3370   56.8770 O.3   225  SER225     -0.2179
    181  N        -16.1890  -15.1140   59.6380 N.am  226  SER226     -0.1949
    182  CA       -16.9360  -15.1030   60.8810 C.3   226  SER226      0.1924
    183  C        -18.2670  -15.7760   60.5400 C.2   226  SER226      0.2314
    184  O        -19.0450  -15.2460   59.7540 O.2   226  SER226     -0.2863
    185  CB       -17.1450  -13.6430   61.3040 C.3   226  SER226      0.2116
    186  OG       -17.5590  -13.5270   62.6480 O.3   226  SER226     -0.2180
    187  N         -2.5820  -18.1100   55.2520 N.3   306  ASN306     -0.1240
    188  CA        -2.1580  -17.0690   56.1840 C.3   306  ASN306      0.1653
    189  C         -2.6160  -17.3080   57.6250 C.2   306  ASN306      0.2266
    190  O         -2.8070  -16.3660   58.3980 O.2   306  ASN306     -0.2867
    191  CB        -2.6520  -15.7090   55.6820 C.3   306  ASN306      0.1155
    192  CG        -4.1000  -15.7510   55.2180 C.2   306  ASN306      0.2627
    193  OD1       -4.4770  -16.6060   54.4130 O.2   306  ASN306     -0.2716
    194  ND2       -4.9160  -14.8250   55.7190 N.am  306  ASN306     -0.0877
    195  N        -21.0800   -6.5410   64.3830 N.3   445  ASP445     -0.1239
    196  CA       -20.3020   -7.2520   63.3640 C.3   445  ASP445      0.1674
    197  C        -20.9970   -8.5700   62.9880 C.2   445  ASP445      0.2266
    198  O        -20.7390   -9.6090   63.5840 O.2   445  ASP445     -0.2867
    199  CB       -18.8890   -7.5230   63.9010 C.3   445  ASP445      0.1410
    200  CG       -18.1230   -8.5340   63.0650 C.2   445  ASP445      0.3668
    201  OD1      -18.1540   -8.4240   61.8180 O.co2 445  ASP445     -0.2456
    202  OD2      -17.4790   -9.4330   63.6590 O.co2 445  ASP445     -0.2456
    203  N        -21.1830  -11.1030   56.8960 N.3   448  GLY448     -0.1225
    204  CA       -21.4790  -10.3420   55.6900 C.3   448  GLY448      0.1811
    205  C        -22.2960  -11.0170   54.6170 C.2   448  GLY448      0.2280
    206  O        -22.5770  -12.2050   54.6760 O.2   448  GLY448     -0.2866
@<TRIPOS>BOND
     1    45    43   ar
     2    45    46   ar
     3    43    41   ar
     4    47    46    1
     5    46    44   ar
     6    24    23    2
     7    41    40    1
     8    41    42   ar
     9    40    37    1
    10    32    31    2
    11    58    56    1
    12    44    42   ar
    13    56    55    2
    14    56    57    1
    15    93    92    2
    16    55    54    1
    17    31    30    1
    18    31    36   am
    19    39    38    2
    20    23    22    1
    21    23    29   am
    22    21    22    1
    23    54    53    1
    24    30    29    1
    25    30    33    1
    26    25    22    1
    27    25    26    1
    28    37    36    1
    29    37    38    1
    30    90    91    1
    31   151   152    1
    32    38    48   am
    33    94    91    1
    34    94    95    1
    35    29    35    1
    36    92    91    1
    37    92    96   am
    38    53    52    1
    39    26    28   am
    40    26    27    2
    41   166   164   am
    42     2     1    1
    43     2     3    1
    44     2     5    1
    45   104   101    1
    46    99    98    2
    47   165   164    2
    48    52    49    1
    49   101   100    1
    50   101   102    1
    51     7     5    1
    52    98   100   am
    53    98    97    1
    54    33    34    1
    55    97    96    1
    56     4     3    2
    57   164   163    1
    58     3     9   am
    59   152   153    1
    60   152   155    1
    61     5     6    1
    62    48    49    1
    63    12    11    2
    64   103   102    2
    65    49    50    1
    66    11    10    1
    67    35    34    1
    68     9    10    1
    69   102   105   am
    70   153   159   am
    71   153   154    2
    72   193   192    2
    73   159   160    1
    74   205   206    2
    75   205   204    1
    76   155   156    1
    77    77    75    1
    78    10    13    1
    79   163   160    1
    80     6     8    1
    81   160   161    1
    82   192   191    1
    83   192   194   am
    84   187   188    1
    85    76    75    1
    86    50    51    2
    87    50    59   am
    88   105   106    1
    89   156   157    2
    90   156   158   am
    91   191   188    1
    92   204   203    1
    93    75    74    1
    94   188   189    1
    95    59    60    1
    96   117   116    1
    97    13    14    1
    98    62    61    2
    99   106   107    1
   100   161   167   am
   101   161   162    2
   102   179   180    1
   103   179   176    1
   104    74    71    1
   105    61    60    1
   106    61    70   am
   107    14    15   ar
   108    14    16   ar
   109   167   168    1
   110    15    17   ar
   111    60    63    1
   112   189   190    2
   113   116   115    1
   114    71    70    1
   115    71    72    1
   116    16    18   ar
   117   107   109   am
   118   107   108    2
   119   114   115    1
   120   114   113    1
   121   175   176    1
   122   175   169   am
   123   176   177    1
   124   109   110    1
   125    17    19   ar
   126    18    19   ar
   127   141   139   am
   128    63    64    1
   129    19    20    1
   130   168   169    1
   131   168   171    1
   132   169   170    2
   133    68    67    1
   134    72    73    2
   135   113   110    1
   136   110   111    1
   137    65    64    1
   138    65    66    1
   139   177   181   am
   140   177   178    2
   141   171   172    1
   142    89    88    1
   143   139   140    2
   144   139   138    1
   145   181   182    1
   146   130   129    1
   147   130   131    1
   148   184   183    2
   149    67    66    2
   150    67    69    1
   151   129   126    1
   152   111   118   am
   153   111   112    2
   154    86    88   ar
   155    86    84   ar
   156    88    87   ar
   157   183   182    1
   158   133   131   ar
   159   118   119    1
   160   138   135    1
   161   131   132   ar
   162   172   173    2
   163   172   174   am
   164   182   185    1
   165   125   126    1
   166   125   120   am
   167   185   186    1
   168   134   135    1
   169   134   127   am
   170   126   127    1
   171    84    83   ar
   172    87    85   ar
   173   122   119    1
   174   122   123    1
   175   122   124    1
   176   135   136    1
   177   201   200   ar
   178   119   120    1
   179   127   128    2
   180   120   121    2
   181    83    85   ar
   182    83    82    1
   183    78    79    1
   184   197   196    1
   185   197   198    2
   186   200   202   ar
   187   200   199    1
   188   136   137    2
   189   196   199    1
   190   196   195    1
   191   147   146    1
   192   147   148    1
   193    82    79    1
   194   149   148    1
   195   149   150    1
   196    79    80    1
   197   146   143    1
   198    80    81    2
   199   142   143    1
   200   143   144    1
   201   144   145    2
