@<TRIPOS>MOLECULE
tmp/1qvjA01.pdb
 118 111 0 0 0
SMALL
GASTEIGER

@<TRIPOS>ATOM
      1  N         26.3910   26.4700   44.0720 N.3   112  ALA112     -0.1245
      2  CA        27.0250   25.9640   42.8610 C.3   112  ALA112      0.1562
      3  C         28.4290   25.5660   43.2740 C.2   112  ALA112      0.2260
      4  O         28.8540   25.8120   44.4130 O.2   112  ALA112     -0.2867
      5  CB        27.0720   27.0440   41.7920 C.3   112  ALA112      0.0290
      6  N         32.5010   25.1870   41.4750 N.3   114  ASP114     -0.1239
      7  CA        33.3560   25.4850   40.3330 C.3   114  ASP114      0.1674
      8  C         34.6850   24.7510   40.4460 C.2   114  ASP114      0.2266
      9  O         35.5740   25.1550   41.1980 O.2   114  ASP114     -0.2867
     10  CB        33.6110   27.0030   40.2440 C.3   114  ASP114      0.1410
     11  CG        32.3920   27.7860   39.7680 C.2   114  ASP114      0.3668
     12  OD1       31.9000   27.5040   38.6540 O.co2 114  ASP114     -0.2456
     13  OD2       31.9250   28.6880   40.4960 O.co2 114  ASP114     -0.2456
     14  N         30.5520   28.1520   26.9370 N.3   145  ARG145     -0.1245
     15  CA        29.1180   27.9710   27.1540 C.3   145  ARG145      0.1563
     16  C         28.3030   28.0030   25.8730 C.2   145  ARG145      0.2260
     17  O         28.4190   28.9360   25.0740 O.2   145  ARG145     -0.2867
     18  CB        28.5950   29.0390   28.1200 C.3   145  ARG145      0.0307
     19  CG        29.1490   28.9180   29.5350 C.3   145  ARG145      0.0489
     20  CD        28.7310   30.1010   30.3950 C.3   145  ARG145      0.2205
     21  NE        27.2910   30.1530   30.6430 N.pl3 145  ARG145     -0.0865
     22  CZ        26.6740   29.5470   31.6580 C.cat 145  ARG145      0.5346
     23  NH1       27.3620   28.8270   32.5370 N.pl3 145  ARG145      0.1354
     24  NH2       25.3630   29.6840   31.8100 N.pl3 145  ARG145      0.1354
     25  N         31.6020   24.6580   35.9220 N.3   155  GLY155     -0.1210
     26  CA        30.8930   24.4240   37.1680 C.3   155  GLY155      0.1956
     27  C         29.4030   24.2270   36.9780 C.2   155  GLY155      0.2612
     28  O         28.9200   24.0790   35.8550 O.2   155  GLY155     -0.2717
     29  N         28.6620   24.2140   38.0770 N.am  156  GLY156     -0.1956
     30  CA        27.2300   24.0070   37.9770 C.3   156  GLY156      0.1869
     31  C         26.5680   23.9420   39.3320 C.2   156  GLY156      0.2309
     32  O         27.2140   23.9610   40.3810 O.2   156  GLY156     -0.2863
     33  N         28.0770   35.3640   45.1610 N.3   209  VAL209     -0.1245
     34  CA        28.5050   35.6940   43.8260 C.3   209  VAL209      0.1561
     35  C         27.5720   36.7520   43.2920 C.2   209  VAL209      0.2260
     36  O         26.3500   36.5310   43.2310 O.2   209  VAL209     -0.2867
     37  CB        28.4910   34.4690   42.8660 C.3   209  VAL209      0.0252
     38  CG1       28.6150   34.9480   41.4290 C.3   209  VAL209      0.0019
     39  CG2       29.6180   33.4980   43.2010 C.3   209  VAL209      0.0019
     40  N         25.5450   38.0650   40.9270 N.3   211  ASP211     -0.1239
     41  CA        24.9440   37.4230   39.7590 C.3   211  ASP211      0.1674
     42  C         23.6260   38.0860   39.3200 C.2   211  ASP211      0.2266
     43  O         22.8180   38.4920   40.1550 O.2   211  ASP211     -0.2867
     44  CB        24.7130   35.9590   40.1560 C.3   211  ASP211      0.1410
     45  CG        24.3790   35.0660   38.9940 C.2   211  ASP211      0.3668
     46  OD1       23.2670   35.1910   38.4560 O.co2 211  ASP211     -0.2456
     47  OD2       25.2440   34.2390   38.6060 O.co2 211  ASP211     -0.2456
     48  N         20.9980   36.8760   38.4720 N.3   213  ARG213     -0.1245
     49  CA        19.8410   36.1030   38.9060 C.3   213  ARG213      0.1563
     50  C         19.4700   36.3910   40.3600 C.2   213  ARG213      0.2260
     51  O         18.4230   35.9630   40.8460 O.2   213  ARG213     -0.2867
     52  CB        20.1370   34.6080   38.7720 C.3   213  ARG213      0.0307
     53  CG        20.1520   34.1090   37.3260 C.3   213  ARG213      0.0489
     54  CD        20.6830   32.6750   37.2400 C.3   213  ARG213      0.2205
     55  NE        22.0680   32.5890   37.6810 N.pl3 213  ARG213     -0.0865
     56  CZ        22.8190   31.4950   37.6000 C.cat 213  ARG213      0.5346
     57  NH1       22.3150   30.3750   37.0950 N.pl3 213  ARG213      0.1354
     58  NH2       24.0830   31.5310   37.9980 N.pl3 213  ARG213      0.1354
     59  N         25.5570   31.3310   45.2740 N.3   220  GLU220     -0.1231
     60  CA        26.7840   31.1820   46.0530 C.3   220  GLU220      0.1699
     61  C         27.5760   30.0840   45.3610 C.2   220  GLU220      0.2592
     62  O         26.9970   29.1860   44.7230 O.2   220  GLU220     -0.2718
     63  CB        26.5250   30.8030   47.5190 C.3   220  GLU220      0.0402
     64  CG        26.0220   32.0100   48.3470 C.3   220  GLU220      0.1161
     65  CD        26.0850   31.8070   49.8600 C.2   220  GLU220      0.3649
     66  OE1       26.8420   30.9270   50.3250 O.co2 220  GLU220     -0.2457
     67  OE2       25.3790   32.5540   50.5870 O.co2 220  GLU220     -0.2457
     68  N         28.8950   30.1530   45.4590 N.am  221  THR221     -0.1953
     69  CA        29.6890   29.1130   44.8410 C.3   221  THR221      0.1897
     70  C         30.8270   28.6890   45.7250 C.2   221  THR221      0.2313
     71  O         31.1640   29.3450   46.7220 O.2   221  THR221     -0.2863
     72  CB        30.2660   29.5520   43.4490 C.3   221  THR221      0.1794
     73  OG1       30.6190   28.3780   42.6860 O.3   221  THR221     -0.2208
     74  CG2       31.5230   30.3940   43.6200 C.3   221  THR221      0.0378
     75  N         33.4030   34.1070   31.9680 N.3   258  TYR258     -0.1227
     76  CA        32.0240   34.1950   32.4330 C.3   258  TYR258      0.1736
     77  C         31.9540   34.5270   33.9230 C.2   258  TYR258      0.2595
     78  O         32.8100   34.1500   34.7090 O.2   258  TYR258     -0.2718
     79  CB        31.3470   32.8510   32.2090 C.3   258  TYR258      0.0548
     80  CG        30.0880   32.5210   32.9660 C.ar  258  TYR258     -0.0200
     81  CD1       28.9040   33.2220   32.7330 C.ar  258  TYR258     -0.0009
     82  CD2       30.0570   31.4940   33.8810 C.ar  258  TYR258     -0.0009
     83  CE1       27.7160   32.8920   33.3800 C.ar  258  TYR258      0.0417
     84  CE2       28.8820   31.1290   34.5350 C.ar  258  TYR258      0.0417
     85  CZ        27.7150   31.8280   34.2740 C.ar  258  TYR258      0.1957
     86  OH        26.5400   31.4700   34.9150 O.3   258  TYR258     -0.2866
     87  N         30.8900   35.2380   34.2930 N.am  259  ALA259     -0.1966
     88  CA        30.6310   35.6100   35.6780 C.3   259  ALA259      0.1728
     89  C         31.8390   36.2050   36.4020 C.2   259  ALA259      0.2617
     90  O         32.4200   37.1980   35.9590 O.2   259  ALA259     -0.2715
     91  CB        30.1070   34.4150   36.4600 C.3   259  ALA259      0.0334
     92  N         32.2150   35.6010   37.5220 N.am  260  SER260     -0.1936
     93  CA        33.3510   36.0970   38.2940 C.3   260  SER260      0.2055
     94  C         34.5090   35.1140   38.2190 C.2   260  SER260      0.2643
     95  O         35.4100   35.1230   39.0560 O.2   260  SER260     -0.2714
     96  CB        32.9460   36.3080   39.7590 C.3   260  SER260      0.2130
     97  OG        31.8790   37.2400   39.8490 O.3   260  SER260     -0.2179
     98  N         34.4910   34.2690   37.2010 N.am  261  HIS261     -0.1973
     99  CA        35.5360   33.2780   37.0780 C.3   261  HIS261      0.1656
    100  C         36.9550   33.8390   36.9530 C.2   261  HIS261      0.2291
    101  O         37.8870   33.2300   37.4520 O.2   261  HIS261     -0.2864
    102  CB        35.1890   32.3170   35.9320 C.3   261  HIS261      0.0771
    103  CG        33.9630   31.4940   36.2050 C.ar  261  HIS261      0.0820
    104  ND1       33.5470   30.4670   35.3850 N.ar  261  HIS261     -0.2267
    105  CD2       33.0790   31.5320   37.2340 C.ar  261  HIS261      0.1154
    106  CE1       32.4660   29.9050   35.8960 C.ar  261  HIS261      0.1986
    107  NE2       32.1600   30.5330   37.0180 N.ar  261  HIS261     -0.2212
    108  N         38.5370   34.2630   40.2970 N.3   264  PHE264     -0.1241
    109  CA        38.9300   32.9770   40.8510 C.3   264  PHE264      0.1605
    110  C         40.2580   32.5460   40.2190 C.2   264  PHE264      0.2264
    111  O         41.1550   32.0530   40.8990 O.2   264  PHE264     -0.2867
    112  CB        37.8620   31.9360   40.5450 C.3   264  PHE264      0.0534
    113  CG        36.4890   32.2710   41.0880 C.ar  264  PHE264     -0.0203
    114  CD1       35.3790   31.5710   40.6420 C.ar  264  PHE264     -0.0042
    115  CD2       36.3150   33.2670   42.0580 C.ar  264  PHE264     -0.0042
    116  CE1       34.1020   31.8410   41.1450 C.ar  264  PHE264     -0.0003
    117  CE2       35.0460   33.5520   42.5680 C.ar  264  PHE264     -0.0003
    118  CZ        33.9370   32.8370   42.1120 C.ar  264  PHE264     -0.0000
@<TRIPOS>BOND
     1    17    16    2
     2    16    15    1
     3    14    15    1
     4    15    18    1
     5    18    19    1
     6    19    20    1
     7    20    21    1
     8    21    22    2
     9    22    24    1
    10    22    23    1
    11    75    76    1
    12    79    76    1
    13    79    80    1
    14    76    77    1
    15    81    80   ar
    16    81    83   ar
    17    80    82   ar
    18    83    85   ar
    19    82    84   ar
    20    77    87   am
    21    77    78    2
    22    85    84   ar
    23    85    86    1
    24    87    88    1
    25   104   106   ar
    26   104   103   ar
    27    88    89    1
    28    88    91    1
    29    28    27    2
    30   106   107   ar
    31    25    26    1
    32   102   103    1
    33   102    99    1
    34    90    89    2
    35   103   105   ar
    36    89    92   am
    37   100    99    1
    38   100   101    2
    39    27    26    1
    40    27    29   am
    41   107   105   ar
    42    99    98    1
    43    57    56    1
    44    98    94   am
    45    54    53    1
    46    54    55    1
    47    53    52    1
    48    92    93    1
    49    56    55    2
    50    56    58    1
    51    30    29    1
    52    30    31    1
    53    94    93    1
    54    94    95    2
    55    93    96    1
    56    46    45   ar
    57    48    49    1
    58    47    45   ar
    59    12    11   ar
    60    52    49    1
    61    49    50    1
    62    45    44    1
    63    42    41    1
    64    42    43    2
    65    31    32    2
    66    41    44    1
    67    41    40    1
    68    96    97    1
    69    11    10    1
    70    11    13   ar
    71   110   109    1
    72   110   111    2
    73    10     7    1
    74   108   109    1
    75     7     8    1
    76     7     6    1
    77    50    51    2
    78     8     9    2
    79   112   109    1
    80   112   113    1
    81   114   113   ar
    82   114   116   ar
    83   113   115   ar
    84   116   118   ar
    85    38    37    1
    86     5     2    1
    87   115   117   ar
    88   118   117   ar
    89    73    72    1
    90     2     3    1
    91     2     1    1
    92    37    39    1
    93    37    34    1
    94    36    35    2
    95     3     4    2
    96    35    34    1
    97    72    74    1
    98    72    69    1
    99    34    33    1
   100    62    61    2
   101    69    68    1
   102    69    70    1
   103    59    60    1
   104    61    68   am
   105    61    60    1
   106    70    71    2
   107    60    63    1
   108    63    64    1
   109    64    65    1
   110    65    66   ar
   111    65    67   ar
