@<TRIPOS>MOLECULE
tmp/1qvnC00.pdb
 80 73 0 0 0
SMALL
GASTEIGER

@<TRIPOS>ATOM
      1  N          7.5200   15.2800   77.8220 N.3    26  ASN26      -0.1240
      2  CA         8.4320   15.3580   78.9650 C.3    26  ASN26       0.1653
      3  C          8.7430   14.0050   79.6080 C.2    26  ASN26       0.2266
      4  O          9.7270   13.8750   80.3370 O.2    26  ASN26      -0.2867
      5  CB         7.8880   16.3160   80.0320 C.3    26  ASN26       0.1155
      6  CG         7.9200   17.7710   79.5940 C.2    26  ASN26       0.2627
      7  OD1        8.8370   18.2110   78.9000 O.2    26  ASN26      -0.2716
      8  ND2        6.9170   18.5280   80.0110 N.am   26  ASN26      -0.0877
      9  N          9.1660   11.1490   77.7860 N.3    28  TYR28      -0.1241
     10  CA         9.8470   10.3180   76.7880 C.3    28  TYR28       0.1605
     11  C         11.2160    9.8390   77.2630 C.2    28  TYR28       0.2264
     12  O         11.9490   10.5840   77.9180 O.2    28  TYR28      -0.2867
     13  CB        10.0160   11.0850   75.4720 C.3    28  TYR28       0.0534
     14  CG         8.7910   11.1220   74.5790 C.ar   28  TYR28      -0.0201
     15  CD1        7.7160   10.2570   74.7840 C.ar   28  TYR28      -0.0009
     16  CD2        8.7140   12.0260   73.5190 C.ar   28  TYR28      -0.0009
     17  CE1        6.5960   10.2960   73.9620 C.ar   28  TYR28       0.0417
     18  CE2        7.5980   12.0720   72.6910 C.ar   28  TYR28       0.0417
     19  CZ         6.5440   11.2050   72.9180 C.ar   28  TYR28       0.1957
     20  OH         5.4390   11.2470   72.1000 O.3    28  TYR28      -0.2866
     21  N         15.1900    8.7210   77.0930 N.3    30  ASN30      -0.1240
     22  CA        16.3310    9.5170   76.6270 C.3    30  ASN30       0.1653
     23  C         16.6480    9.4850   75.1180 C.2    30  ASN30       0.2266
     24  O         16.8360   10.5490   74.5250 O.2    30  ASN30      -0.2867
     25  CB        17.5890    9.2260   77.4610 C.3    30  ASN30       0.1155
     26  CG        17.6570   10.0660   78.7270 C.2    30  ASN30       0.2627
     27  OD1       17.5730   11.2960   78.6800 O.2    30  ASN30      -0.2716
     28  ND2       17.8120    9.4020   79.8680 N.am   30  ASN30      -0.0877
     29  N         13.5300   11.2410   73.3010 N.3    33  LEU33      -0.1245
     30  CA        13.4900   12.6840   73.5240 C.3    33  LEU33       0.1561
     31  C         14.5360   13.4050   72.6790 C.2    33  LEU33       0.2260
     32  O         14.2740   14.4860   72.1500 O.2    33  LEU33      -0.2867
     33  CB        13.6720   13.0130   75.0110 C.3    33  LEU33       0.0270
     34  CG        13.4230   14.4570   75.4700 C.3    33  LEU33       0.0019
     35  CD1       11.9970   14.9100   75.1740 C.3    33  LEU33       0.0001
     36  CD2       13.7390   14.6170   76.9510 C.3    33  LEU33       0.0001
     37  N         13.8580   16.3760   69.4770 N.3    37  LEU37      -0.1245
     38  CA        14.3840   17.7250   69.6590 C.3    37  LEU37       0.1561
     39  C         15.1660   18.1900   68.4290 C.2    37  LEU37       0.2260
     40  O         15.7130   19.2950   68.4090 O.2    37  LEU37      -0.2867
     41  CB        15.2470   17.8060   70.9200 C.3    37  LEU37       0.0270
     42  CG        14.5160   17.7510   72.2660 C.3    37  LEU37       0.0019
     43  CD1       15.5020   17.4120   73.3740 C.3    37  LEU37       0.0001
     44  CD2       13.7820   19.0540   72.5740 C.3    37  LEU37       0.0001
     45  N         12.8830   26.8750   66.8430 N.3   102  ALA102     -0.1231
     46  CA        12.8940   26.2650   68.1670 C.3   102  ALA102      0.1694
     47  C         12.4090   24.8190   68.1240 C.2   102  ALA102      0.2592
     48  O         11.9360   24.3420   67.0880 O.2   102  ALA102     -0.2718
     49  CB        12.0510   27.0820   69.1260 C.3   102  ALA102      0.0304
     50  N         12.5400   24.1260   69.2530 N.am  103  THR103     -0.1953
     51  CA        12.0670   22.7500   69.3770 C.3   103  THR103      0.1897
     52  C         10.5870   22.7110   69.7530 C.2   103  THR103      0.2313
     53  O          9.9710   23.7540   70.0010 O.2   103  THR103     -0.2863
     54  CB        12.8930   21.9770   70.4240 C.3   103  THR103      0.1794
     55  OG1       12.6680   22.5410   71.7230 O.3   103  THR103     -0.2208
     56  CG2       14.3960   22.1600   70.1870 C.3   103  THR103      0.0378
     57  N          9.3440   21.7070   72.4620 N.3   105  VAL105     -0.1231
     58  CA         9.2040   22.1140   73.8570 C.3   105  VAL105      0.1692
     59  C          9.0380   23.6290   73.9760 C.2   105  VAL105      0.2591
     60  O          8.1260   24.0990   74.6610 O.2   105  VAL105     -0.2718
     61  CB        10.3860   21.6120   74.7200 C.3   105  VAL105      0.0266
     62  CG1       10.2140   22.0250   76.1730 C.3   105  VAL105      0.0020
     63  CG2       10.5140   20.0980   74.6170 C.3   105  VAL105      0.0020
     64  N          9.9050   24.3860   73.3020 N.am  106  GLU106     -0.1979
     65  CA         9.7960   25.8460   73.2940 C.3   106  GLU106      0.1602
     66  C          8.5750   26.3210   72.5150 C.2   106  GLU106      0.2287
     67  O          7.9580   27.3230   72.8760 O.2   106  GLU106     -0.2864
     68  CB        11.0590   26.5100   72.7360 C.3   106  GLU106      0.0415
     69  CG        11.2650   27.9240   73.2700 C.3   106  GLU106      0.1163
     70  CD        12.1470   28.7930   72.3890 C.2   106  GLU106      0.3649
     71  OE1       11.8040   29.9830   72.2020 O.co2 106  GLU106     -0.2457
     72  OE2       13.1900   28.3060   71.9000 O.co2 106  GLU106     -0.2457
     73  N          5.3890   25.6470   74.7580 N.3   109  ASN109     -0.1240
     74  CA         5.4430   26.5400   75.9150 C.3   109  ASN109      0.1653
     75  C          5.1020   27.9950   75.5870 C.2   109  ASN109      0.2266
     76  O          4.4090   28.6570   76.3590 O.2   109  ASN109     -0.2867
     77  CB         6.8070   26.4480   76.6110 C.3   109  ASN109      0.1155
     78  CG         6.8610   25.3420   77.6560 C.2   109  ASN109      0.2627
     79  OD1        6.0240   25.2770   78.5570 O.2   109  ASN109     -0.2716
     80  ND2        7.8530   24.4690   77.5410 N.am  109  ASN109     -0.0877
@<TRIPOS>BOND
     1    45    46    1
     2    48    47    2
     3    47    46    1
     4    47    50   am
     5    46    49    1
     6    40    39    2
     7    39    38    1
     8    50    51    1
     9    51    52    1
    10    51    54    1
    11    37    38    1
    12    38    41    1
    13    52    53    2
    14    56    54    1
    15    54    55    1
    16    41    42    1
    17    72    70   ar
    18    20    19    1
    19    32    31    2
    20    71    70   ar
    21    42    44    1
    22    42    43    1
    23    70    69    1
    24    57    58    1
    25    66    67    2
    26    66    65    1
    27    31    30    1
    28    18    19   ar
    29    18    16   ar
    30    68    69    1
    31    68    65    1
    32    19    17   ar
    33    65    64    1
    34    29    30    1
    35    64    59   am
    36    16    14   ar
    37    30    33    1
    38    58    59    1
    39    58    61    1
    40    17    15   ar
    41    59    60    2
    42    24    23    2
    43    14    15   ar
    44    14    13    1
    45    63    61    1
    46    61    62    1
    47    73    74    1
    48    33    34    1
    49    23    22    1
    50    35    34    1
    51    34    36    1
    52    13    10    1
    53    75    74    1
    54    75    76    2
    55    74    77    1
    56    77    78    1
    57    22    21    1
    58    22    25    1
    59    10    11    1
    60    10     9    1
    61    11    12    2
    62    25    26    1
    63    80    78   am
    64    78    79    2
    65     1     2    1
    66    27    26    2
    67    26    28   am
    68     7     6    2
    69     2     3    1
    70     2     5    1
    71     6     8   am
    72     6     5    1
    73     3     4    2
