@<TRIPOS>MOLECULE
tmp/1qvnC01.pdb
 153 149 0 0 0
SMALL
GASTEIGER

@<TRIPOS>ATOM
      1  N         11.5520    8.5970   76.9200 N.3    29  LYS29      -0.1245
      2  CA        12.8610    8.0220   77.2380 C.3    29  LYS29       0.1561
      3  C         13.9880    8.7730   76.5210 C.2    29  LYS29       0.2260
      4  O         13.7650    9.3780   75.4700 O.2    29  LYS29      -0.2867
      5  CB        12.8990    6.5210   76.9130 C.3    29  LYS29       0.0271
      6  CG        12.4610    6.1510   75.4960 C.3    29  LYS29       0.0035
      7  CD        13.3800    5.1000   74.8880 C.3    29  LYS29       0.0206
      8  CE        13.4570    5.2350   73.3750 C.3    29  LYS29       0.1093
      9  NZ        14.5450    4.4060   72.7830 N.3    29  LYS29      -0.1314
     10  N         16.7210    8.3010   74.4970 N.3    31  PRO31      -0.2102
     11  CA        16.9250    8.2210   73.0420 C.3    31  PRO31       0.1504
     12  C         15.7600    8.7920   72.2230 C.2    31  PRO31       0.2575
     13  O         16.0080    9.3460   71.1500 O.2    31  PRO31      -0.2718
     14  CB        17.0730    6.7150   72.7870 C.3    31  PRO31       0.0282
     15  CG        17.4360    6.1420   74.1120 C.3    31  PRO31       0.0208
     16  CD        16.6660    6.9560   75.1030 C.3    31  PRO31       0.0893
     17  N         14.5280    8.6560   72.7180 N.am   32  LYS32      -0.1980
     18  CA        13.3420    9.1740   72.0280 C.3    32  LYS32       0.1596
     19  C         13.2360   10.6980   72.1210 C.2    32  LYS32       0.2287
     20  O         12.8890   11.3620   71.1400 O.2    32  LYS32      -0.2864
     21  CB        12.0640    8.5150   72.5640 C.3    32  LYS32       0.0298
     22  CG        10.7760    9.0070   71.9120 C.3    32  LYS32       0.0038
     23  CD         9.6010    8.0940   72.2140 C.3    32  LYS32       0.0206
     24  CE         8.4740    8.3290   71.2270 C.3    32  LYS32       0.1093
     25  NZ         7.6660    7.0990   70.9930 N.3    32  LYS32      -0.1314
     26  N         15.7670   12.4950   69.7270 N.3    35  ARG35      -0.1231
     27  CA        15.3950   12.4810   68.3130 C.3    35  ARG35       0.1694
     28  C         14.3110   13.5000   67.9570 C.2    35  ARG35       0.2591
     29  O         14.3080   14.0450   66.8530 O.2    35  ARG35      -0.2718
     30  CB        14.9530   11.0760   67.8800 C.3    35  ARG35       0.0321
     31  CG        16.0590   10.0140   67.8710 C.3    35  ARG35       0.0489
     32  CD        17.1420   10.1950   66.7990 C.3    35  ARG35       0.2205
     33  NE        16.6020   10.4390   65.4590 N.pl3  35  ARG35      -0.0865
     34  CZ        16.1530    9.4940   64.6380 C.cat  35  ARG35       0.5346
     35  NH1       16.1610    8.2170   65.0050 N.pl3  35  ARG35       0.1354
     36  NH2       15.6860    9.8280   63.4430 N.pl3  35  ARG35       0.1354
     37  N         13.3940   13.7540   68.8880 N.am   36  MET36      -0.1979
     38  CA        12.3050   14.6990   68.6430 C.3    36  MET36       0.1605
     39  C         12.7050   16.1580   68.8510 C.2    36  MET36       0.2287
     40  O         11.9780   17.0680   68.4480 O.2    36  MET36      -0.2864
     41  CB        11.0810   14.3590   69.4910 C.3    36  MET36       0.0413
     42  CG         9.7600   14.7210   68.8160 C.3    36  MET36       0.0598
     43  SD         8.4030   14.9880   69.9550 S.3    36  MET36      -0.1393
     44  CE         9.2940   15.1080   71.5130 C.3    36  MET36       0.0692
     45  N         15.2110   17.3340   67.4090 N.3    38  THR38      -0.1203
     46  CA        15.8030   17.6800   66.1210 C.3    38  THR38       0.1994
     47  C         14.7460   18.2660   65.1840 C.2    38  THR38       0.2618
     48  O         15.0840   18.9030   64.1840 O.2    38  THR38      -0.2717
     49  CB        16.4830   16.4510   65.4600 C.3    38  THR38       0.1784
     50  OG1       15.4880   15.5110   65.0330 O.3    38  THR38      -0.2211
     51  CG2       17.3120   15.6640   66.4740 C.3    38  THR38       0.0376
     52  N         13.4720   18.0360   65.5120 N.am   39  PHE39      -0.1961
     53  CA        12.3510   18.5780   64.7430 C.3    39  PHE39       0.1771
     54  C         12.1930   20.0670   65.0300 C.2    39  PHE39       0.2619
     55  O         11.8390   20.4620   66.1430 O.2    39  PHE39      -0.2715
     56  CB        11.0520   17.8310   65.0690 C.3    39  PHE39       0.0574
     57  CG         9.9740   17.9810   64.0210 C.ar   39  PHE39      -0.0200
     58  CD1        9.3050   19.1920   63.8470 C.ar   39  PHE39      -0.0042
     59  CD2        9.6150   16.9040   63.2200 C.ar   39  PHE39      -0.0042
     60  CE1        8.3070   19.3280   62.8860 C.ar   39  PHE39      -0.0003
     61  CE2        8.6170   17.0310   62.2550 C.ar   39  PHE39      -0.0003
     62  CZ         7.9630   18.2450   62.0890 C.ar   39  PHE39      -0.0000
     63  N         12.4530   20.8850   64.0150 N.am   40  LYS40      -0.1963
     64  CA        12.4570   22.3340   64.1850 C.3    40  LYS40       0.1728
     65  C         11.1170   22.9810   63.8400 C.2    40  LYS40       0.2616
     66  O         10.4690   22.6230   62.8540 O.2    40  LYS40      -0.2715
     67  CB        13.6020   22.9770   63.3880 C.3    40  LYS40       0.0311
     68  CG        15.0270   22.6580   63.8930 C.3    40  LYS40       0.0038
     69  CD        15.1330   22.4910   65.4180 C.3    40  LYS40       0.0206
     70  CE        15.2240   23.8330   66.1470 C.3    40  LYS40       0.1093
     71  NZ        16.5990   24.4020   66.1490 N.3    40  LYS40      -0.1314
     72  N         10.7160   23.9320   64.6790 N.am   41  PHE41      -0.1960
     73  CA         9.4520   24.6420   64.5310 C.3    41  PHE41       0.1771
     74  C          9.6970   26.1220   64.2910 C.2    41  PHE41       0.2619
     75  O         10.6780   26.6840   64.7800 O.2    41  PHE41      -0.2715
     76  CB         8.6040   24.4770   65.7950 C.3    41  PHE41       0.0574
     77  CG         7.8500   23.1810   65.8580 C.ar   41  PHE41      -0.0200
     78  CD1        6.5640   23.0850   65.3360 C.ar   41  PHE41      -0.0042
     79  CD2        8.4210   22.0580   66.4510 C.ar   41  PHE41      -0.0042
     80  CE1        5.8570   21.8840   65.3960 C.ar   41  PHE41      -0.0003
     81  CE2        7.7230   20.8540   66.5150 C.ar   41  PHE41      -0.0003
     82  CZ         6.4390   20.7660   65.9860 C.ar   41  PHE41      -0.0000
     83  N          8.7980   26.7490   63.5390 N.am   42  TYR42      -0.1974
     84  CA         8.8300   28.1950   63.3550 C.3    42  TYR42       0.1639
     85  C          8.1270   28.8940   64.5170 C.2    42  TYR42       0.2290
     86  O          7.0610   28.4640   64.9620 O.2    42  TYR42      -0.2864
     87  CB         8.1950   28.5900   62.0200 C.3    42  TYR42       0.0560
     88  CG         9.1250   28.4750   60.8320 C.ar   42  TYR42      -0.0198
     89  CD1       10.3730   29.1000   60.8320 C.ar   42  TYR42      -0.0009
     90  CD2        8.7550   27.7420   59.7050 C.ar   42  TYR42      -0.0009
     91  CE1       11.2310   28.9950   59.7380 C.ar   42  TYR42       0.0417
     92  CE2        9.6030   27.6330   58.6050 C.ar   42  TYR42       0.0417
     93  CZ        10.8390   28.2620   58.6290 C.ar   42  TYR42       0.1957
     94  OH        11.6840   28.1590   57.5470 O.3    42  TYR42      -0.2866
     95  N         -0.6160   27.7470   61.0280 N.3    58  GLU58      -0.1231
     96  CA         0.3240   27.3890   59.9680 C.3    58  GLU58       0.1699
     97  C          1.3230   26.3150   60.4020 C.2    58  GLU58       0.2592
     98  O          1.8700   25.5970   59.5640 O.2    58  GLU58      -0.2718
     99  CB         1.0800   28.6330   59.5000 C.3    58  GLU58       0.0402
    100  CG         0.3220   29.4920   58.5020 C.3    58  GLU58       0.1161
    101  CD         1.1410   30.6650   57.9930 C.2    58  GLU58       0.3649
    102  OE1        2.1820   30.4320   57.3370 O.co2  58  GLU58      -0.2457
    103  OE2        0.7420   31.8230   58.2440 O.co2  58  GLU58      -0.2457
    104  N          1.5500   26.2140   61.7120 N.am   59  GLU59      -0.1979
    105  CA         2.5100   25.2680   62.2790 C.3    59  GLU59       0.1602
    106  C          1.8580   24.0020   62.8540 C.2    59  GLU59       0.2287
    107  O          2.5260   23.1940   63.5010 O.2    59  GLU59      -0.2864
    108  CB         3.3670   25.9570   63.3520 C.3    59  GLU59       0.0415
    109  CG         4.4540   26.8760   62.8100 C.3    59  GLU59       0.1163
    110  CD         5.4820   26.1460   61.9630 C.2    59  GLU59       0.3649
    111  OE1        6.3490   25.4510   62.5340 O.co2  59  GLU59      -0.2457
    112  OE2        5.4230   26.2710   60.7220 O.co2  59  GLU59      -0.2457
    113  N          3.2030   20.6820   60.6540 N.3    62  PRO62      -0.2116
    114  CA         4.4580   20.1870   61.2380 C.3    62  PRO62       0.1372
    115  C          4.2350   19.5090   62.5900 C.2    62  PRO62       0.2244
    116  O          4.8650   18.4850   62.8610 O.2    62  PRO62      -0.2868
    117  CB         5.2870   21.4620   61.4330 C.3    62  PRO62       0.0268
    118  CG         4.7390   22.4310   60.4530 C.3    62  PRO62       0.0207
    119  CD         3.2850   22.1210   60.3350 C.3    62  PRO62       0.0892
    120  N          2.8340   16.2270   62.0090 N.3    65  GLU65      -0.1231
    121  CA         3.9200   15.4190   61.4590 C.3    65  GLU65       0.1699
    122  C          4.8500   14.8960   62.5560 C.2    65  GLU65       0.2592
    123  O          5.2010   13.7170   62.5680 O.2    65  GLU65      -0.2718
    124  CB         4.7120   16.2350   60.4350 C.3    65  GLU65       0.0402
    125  CG         5.3720   15.4150   59.3380 C.3    65  GLU65       0.1161
    126  CD         6.4200   16.2070   58.5770 C.2    65  GLU65       0.3649
    127  OE1        7.6160   15.8550   58.6690 O.co2  65  GLU65      -0.2457
    128  OE2        6.0500   17.1830   57.8880 O.co2  65  GLU65      -0.2457
    129  N          5.2360   15.7810   63.4740 N.am   66  ALA66      -0.1980
    130  CA         6.1200   15.4330   64.5870 C.3    66  ALA66       0.1597
    131  C          5.5000   14.4070   65.5380 C.2    66  ALA66       0.2287
    132  O          6.1900   13.5060   66.0160 O.2    66  ALA66      -0.2864
    133  CB         6.5330   16.6860   65.3480 C.3    66  ALA66       0.0319
    134  N          5.5140   10.8370   64.0470 N.3    69  LEU69      -0.1231
    135  CA         6.8240   10.2100   64.2040 C.3    69  LEU69       0.1693
    136  C          7.0510    9.6940   65.6290 C.2    69  LEU69       0.2591
    137  O          7.8290    8.7600   65.8380 O.2    69  LEU69      -0.2718
    138  CB         7.9400   11.1890   63.8180 C.3    69  LEU69       0.0284
    139  CG         7.9630   11.7420   62.3890 C.3    69  LEU69       0.0019
    140  CD1        8.5660   13.1400   62.3730 C.3    69  LEU69       0.0001
    141  CD2        8.7210   10.8160   61.4400 C.3    69  LEU69       0.0001
    142  N          6.3700   10.3090   66.5970 N.am   70  ALA70      -0.1980
    143  CA         6.4780    9.9250   68.0040 C.3    70  ALA70       0.1597
    144  C          5.1710    9.3320   68.5360 C.2    70  ALA70       0.2287
    145  O          4.4350    9.9840   69.2820 O.2    70  ALA70      -0.2864
    146  CB         6.9090   11.1190   68.8440 C.3    70  ALA70       0.0319
    147  N         14.7590   29.1820   64.7410 N.3   101  THR101     -0.1218
    148  CA        13.7830   28.1200   64.9630 C.3   101  THR101      0.1862
    149  C         13.9310   27.5390   66.3680 C.2   101  THR101      0.2287
    150  O         14.9760   27.6890   67.0060 O.2   101  THR101     -0.2866
    151  CB        13.9430   26.9990   63.9100 C.3   101  THR101      0.1770
    152  OG1       15.2900   26.5100   63.9260 O.3   101  THR101     -0.2211
    153  CG2       13.7800   27.5500   62.4990 C.3   101  THR101      0.0375
@<TRIPOS>BOND
     1   102   101   ar
     2    94    93    1
     3   128   126   ar
     4   101   103   ar
     5   101   100    1
     6   100    99    1
     7   126   127   ar
     8   126   125    1
     9    92    93   ar
    10    92    90   ar
    11    93    91   ar
    12   125   124    1
    13    99    96    1
    14    98    97    2
    15    90    88   ar
    16    91    89   ar
    17    96    97    1
    18    96    95    1
    19   119   118    1
    20   119   113    1
    21    97   104   am
    22   124   121    1
    23   118   117    1
    24   113   114    1
    25   112   110   ar
    26    88    89   ar
    27    88    87    1
    28   114   117    1
    29   114   115    1
    30   141   139    1
    31   121   120    1
    32   121   122    1
    33   104   105    1
    34   110   111   ar
    35   110   109    1
    36    87    84    1
    37    62    61   ar
    38    62    60   ar
    39    61    59   ar
    40   105   106    1
    41   105   108    1
    42   140   139    1
    43   139   138    1
    44   153   151    1
    45   122   123    2
    46   122   129   am
    47   115   116    2
    48   109   108    1
    49   106   107    2
    50    66    65    2
    51    60    58   ar
    52    59    57   ar
    53    84    83    1
    54    84    85    1
    55    67    68    1
    56    67    64    1
    57    36    34    1
    58   129   130    1
    59    83    74   am
    60   138   135    1
    61    65    64    1
    62    65    72   am
    63    58    57   ar
    64    68    69    1
    65   151   152    1
    66   151   148    1
    67    63    64    1
    68    63    54   am
    69    57    56    1
    70   134   135    1
    71    48    47    2
    72   135   136    1
    73    74    73    1
    74    74    75    2
    75    85    86    2
    76    73    72    1
    77    73    76    1
    78   130   133    1
    79   130   131    1
    80    34    35    1
    81    34    33    2
    82   147   148    1
    83    53    54    1
    84    53    56    1
    85    53    52    1
    86   148   149    1
    87    54    55    2
    88    50    49    1
    89    47    52   am
    90    47    46    1
    91    78    80   ar
    92    78    77   ar
    93    80    82   ar
    94    69    70    1
    95    33    32    1
    96    49    46    1
    97    49    51    1
    98   131   132    2
    99   136   137    2
   100   136   142   am
   101    76    77    1
   102    77    79   ar
   103    82    81   ar
   104    46    45    1
   105    70    71    1
   106   149   150    2
   107    79    81   ar
   108   142   143    1
   109    32    31    1
   110    29    28    2
   111    31    30    1
   112    30    27    1
   113    28    27    1
   114    28    37   am
   115   143   144    1
   116   143   146    1
   117    27    26    1
   118    40    39    2
   119   144   145    2
   120    38    39    1
   121    38    37    1
   122    38    41    1
   123    42    41    1
   124    42    43    1
   125    43    44    1
   126    25    24    1
   127    20    19    2
   128    13    12    2
   129    24    23    1
   130    22    23    1
   131    22    21    1
   132    18    19    1
   133    18    21    1
   134    18    17    1
   135    12    17   am
   136    12    11    1
   137     9     8    1
   138    14    11    1
   139    14    15    1
   140    11    10    1
   141     8     7    1
   142    15    16    1
   143    10    16    1
   144     7     6    1
   145     4     3    2
   146     6     5    1
   147     3     2    1
   148     5     2    1
   149     1     2    1
