@<TRIPOS>MOLECULE
tmp/1qvrA00.pdb
 170 164 0 0 0
SMALL
GASTEIGER

@<TRIPOS>ATOM
      1  N         35.5010   29.5820   47.4860 N.3   167  ASP167     -0.1225
      2  CA        36.6130   28.7160   47.8400 C.3   167  ASP167      0.1790
      3  C         37.7740   29.5610   48.3330 C.2   167  ASP167      0.2440
      4  O         38.0640   30.6230   47.7820 O.2   167  ASP167     -0.2733
      5  CB        37.0720   27.8990   46.6300 C.3   167  ASP167      0.1423
      6  CG        36.0210   26.9210   46.1520 C.2   167  ASP167      0.3668
      7  OD1       35.6220   26.0410   46.9480 O.co2 167  ASP167     -0.2456
      8  OD2       35.5970   27.0330   44.9800 O.co2 167  ASP167     -0.2456
      9  N         38.4540   29.0960   49.3850 N.am  168  PRO168     -0.2718
     10  CA        39.5950   29.8070   49.9590 C.3   168  PRO168      0.1535
     11  C         40.6950   30.0590   48.9300 C.2   168  PRO168      0.2598
     12  O         41.4020   29.1310   48.5410 O.2   168  PRO168     -0.2715
     13  CB        40.0590   28.8640   51.0650 C.3   168  PRO168      0.0310
     14  CG        38.7910   28.2110   51.4990 C.3   168  PRO168      0.0237
     15  CD        38.1230   27.9060   50.1860 C.3   168  PRO168      0.0939
     16  N         40.8280   31.3030   48.4750 N.am  169  VAL169     -0.1964
     17  CA        41.8820   31.6420   47.5170 C.3   169  VAL169      0.1727
     18  C         43.1050   31.9980   48.3480 C.2   169  VAL169      0.2616
     19  O         43.0190   32.8030   49.2770 O.2   169  VAL169     -0.2715
     20  CB        41.5120   32.8560   46.6360 C.3   169  VAL169      0.0290
     21  CG1       40.2730   32.5480   45.8110 C.3   169  VAL169      0.0023
     22  CG2       41.2930   34.0760   47.5040 C.3   169  VAL169      0.0023
     23  N         44.2440   31.3940   48.0320 N.am  170  ILE170     -0.1977
     24  CA        45.4410   31.6740   48.8070 C.3   170  ILE170      0.1596
     25  C         46.6680   31.9360   47.9530 C.2   170  ILE170      0.2287
     26  O         46.7620   31.4610   46.8250 O.2   170  ILE170     -0.2864
     27  CB        45.7720   30.5070   49.7700 C.3   170  ILE170      0.0276
     28  CG1       46.3400   29.3260   48.9880 C.3   170  ILE170      0.0022
     29  CG2       44.5140   30.0620   50.5120 C.3   170  ILE170      0.0022
     30  CD1       46.8190   28.1990   49.8760 C.3   170  ILE170      0.0001
     31  N         47.9610   35.0060   46.6920 N.3   172  ARG172     -0.1245
     32  CA        47.9930   36.0150   45.6410 C.3   172  ARG172      0.1563
     33  C         47.7420   37.4180   46.1640 C.2   172  ARG172      0.2260
     34  O         47.0440   38.2150   45.5420 O.2   172  ARG172     -0.2867
     35  CB        47.0120   35.6610   44.5190 C.3   172  ARG172      0.0307
     36  CG        47.6430   34.7490   43.4700 C.3   172  ARG172      0.0489
     37  CD        46.6640   34.3140   42.3970 C.3   172  ARG172      0.2205
     38  NE        47.2900   33.4890   41.3620 N.pl3 172  ARG172     -0.0865
     39  CZ        48.2970   33.8900   40.5880 C.cat 172  ARG172      0.5346
     40  NH1       48.8020   35.1090   40.7290 N.pl3 172  ARG172      0.1354
     41  NH2       48.7930   33.0790   39.6630 N.pl3 172  ARG172      0.1354
     42  N         47.3440   33.5960   31.2470 N.3   196  GLU196     -0.1231
     43  CA        47.0620   32.3900   30.4850 C.3   196  GLU196      0.1684
     44  C         45.8900   31.6340   31.1150 C.2   196  GLU196      0.2434
     45  O         45.6080   31.7860   32.3030 O.2   196  GLU196     -0.2733
     46  CB        48.3050   31.5010   30.4650 C.3   196  GLU196      0.0402
     47  CG        48.3240   30.4800   29.3520 C.3   196  GLU196      0.1161
     48  CD        48.5330   31.1150   27.9990 C.2   196  GLU196      0.3649
     49  OE1       47.7200   31.9850   27.6120 O.co2 196  GLU196     -0.2457
     50  OE2       49.5140   30.7410   27.3230 O.co2 196  GLU196     -0.2457
     51  N         45.1820   30.8190   30.3200 N.am  197  PRO197     -0.2718
     52  CA        44.0470   30.0600   30.8510 C.3   197  PRO197      0.1535
     53  C         44.4550   29.0400   31.9190 C.2   197  PRO197      0.2599
     54  O         45.3710   28.2440   31.7060 O.2   197  PRO197     -0.2715
     55  CB        43.4750   29.3900   29.6030 C.3   197  PRO197      0.0310
     56  CG        43.7870   30.3690   28.5270 C.3   197  PRO197      0.0237
     57  CD        45.2070   30.7540   28.8490 C.3   197  PRO197      0.0939
     58  N         43.7670   29.0720   33.0590 N.am  198  GLY198     -0.1941
     59  CA        44.0540   28.1420   34.1430 C.3   198  GLY198      0.2014
     60  C         44.9360   28.6860   35.2590 C.2   198  GLY198      0.2639
     61  O         45.0560   28.0750   36.3230 O.2   198  GLY198     -0.2714
     62  N         45.5440   29.8420   35.0140 N.am  199  VAL199     -0.1963
     63  CA        46.4390   30.4850   35.9680 C.3   199  VAL199      0.1727
     64  C         45.7590   30.9840   37.2410 C.2   199  VAL199      0.2617
     65  O         46.3980   31.1260   38.2840 O.2   199  VAL199     -0.2715
     66  CB        47.1730   31.6510   35.2910 C.3   199  VAL199      0.0290
     67  CG1       48.0370   32.3840   36.3000 C.3   199  VAL199      0.0023
     68  CG2       48.0200   31.1150   34.1440 C.3   199  VAL199      0.0023
     69  N         44.4670   31.2560   37.1660 N.am  200  GLY200     -0.1940
     70  CA        43.7780   31.7230   38.3520 C.3   200  GLY200      0.2014
     71  C         43.4450   33.1990   38.3430 C.2   200  GLY200      0.2639
     72  O         43.5330   33.8660   39.3760 O.2   200  GLY200     -0.2714
     73  N         43.0620   33.7130   37.1780 N.am  201  LYS201     -0.1963
     74  CA        42.7050   35.1150   37.0560 C.3   201  LYS201      0.1728
     75  C         41.4420   35.3960   37.8600 C.2   201  LYS201      0.2617
     76  O         41.4050   36.3290   38.6610 O.2   201  LYS201     -0.2715
     77  CB        42.4920   35.4790   35.5860 C.3   201  LYS201      0.0311
     78  CG        43.7740   35.5300   34.7720 C.3   201  LYS201      0.0038
     79  CD        43.5200   35.8960   33.3140 C.3   201  LYS201      0.0206
     80  CE        43.0120   34.7150   32.5010 C.3   201  LYS201      0.1093
     81  NZ        41.6850   34.2470   32.9550 N.3   201  LYS201     -0.1314
     82  N         40.4130   34.5800   37.6510 N.am  202  THR202     -0.1937
     83  CA        39.1440   34.7400   38.3620 C.3   202  THR202      0.2028
     84  C         39.3400   34.6390   39.8730 C.2   202  THR202      0.2642
     85  O         38.6820   35.3370   40.6460 O.2   202  THR202     -0.2714
     86  CB        38.1260   33.6680   37.9360 C.3   202  THR202      0.1808
     87  OG1       37.9000   33.7530   36.5240 O.3   202  THR202     -0.2208
     88  CG2       36.8160   33.8520   38.6720 C.3   202  THR202      0.0379
     89  N         40.2440   33.7580   40.2860 N.am  203  ALA203     -0.1977
     90  CA        40.5390   33.5690   41.6990 C.3   203  ALA203      0.1597
     91  C         40.8980   34.9170   42.2910 C.2   203  ALA203      0.2287
     92  O         40.3910   35.2920   43.3490 O.2   203  ALA203     -0.2864
     93  CB        41.6930   32.6050   41.8640 C.3   203  ALA203      0.0319
     94  N         37.6520   36.9100   42.9520 N.3   206  GLU206     -0.1245
     95  CA        36.8690   36.4130   44.0810 C.3   206  GLU206      0.1567
     96  C         37.6670   36.5100   45.3690 C.2   206  GLU206      0.2260
     97  O         37.1000   36.6020   46.4600 O.2   206  GLU206     -0.2867
     98  CB        36.4150   34.9750   43.8280 C.3   206  GLU206      0.0388
     99  CG        37.5140   34.0170   43.4520 C.3   206  GLU206      0.1160
    100  CD        36.9660   32.7470   42.8290 C.2   206  GLU206      0.3649
    101  OE1       36.1560   32.0600   43.4850 O.co2 206  GLU206     -0.2457
    102  OE2       37.3450   32.4380   41.6780 O.co2 206  GLU206     -0.2457
    103  N         34.6240   38.1630   32.9340 N.3   256  ASP256     -0.1225
    104  CA        35.6360   37.1190   32.8050 C.3   256  ASP256      0.1805
    105  C         36.3560   37.1080   31.4560 C.2   256  ASP256      0.2597
    106  O         37.4640   36.5820   31.3510 O.2   256  ASP256     -0.2718
    107  CB        35.0310   35.7410   33.0640 C.3   256  ASP256      0.1424
    108  CG        36.0650   34.6330   32.9800 C.2   256  ASP256      0.3668
    109  OD1       37.0810   34.7170   33.7030 O.co2 256  ASP256     -0.2456
    110  OD2       35.8670   33.6830   32.1920 O.co2 256  ASP256     -0.2456
    111  N         35.7310   37.6750   30.4280 N.am  257  GLU257     -0.1979
    112  CA        36.3430   37.7320   29.0990 C.3   257  GLU257      0.1602
    113  C         35.8730   38.9390   28.2990 C.2   257  GLU257      0.2287
    114  O         36.6360   39.5130   27.5210 O.2   257  GLU257     -0.2864
    115  CB        36.0540   36.4530   28.3020 C.3   257  GLU257      0.0415
    116  CG        36.8270   35.2230   28.7830 C.3   257  GLU257      0.1163
    117  CD        36.7500   34.0470   27.8150 C.2   257  GLU257      0.3649
    118  OE1       37.2640   34.1680   26.6790 O.co2 257  GLU257     -0.2457
    119  OE2       36.1750   33.0020   28.1940 O.co2 257  GLU257     -0.2457
    120  N         48.2380   26.0920   47.1730 N.3   307  ILE307     -0.1245
    121  CA        46.8780   26.2980   46.6950 C.3   307  ILE307      0.1561
    122  C         46.0750   25.0190   46.8410 C.2   307  ILE307      0.2260
    123  O         44.9960   25.0250   47.4250 O.2   307  ILE307     -0.2867
    124  CB        46.8730   26.7330   45.2200 C.3   307  ILE307      0.0252
    125  CG1       47.6710   28.0330   45.0600 C.3   307  ILE307      0.0019
    126  CG2       45.4570   26.9190   44.7470 C.3   307  ILE307      0.0019
    127  CD1       47.8360   28.4960   43.6320 C.3   307  ILE307      0.0001
    128  N         42.4640   24.3180   49.0220 N.3   311  LEU311     -0.1245
    129  CA        41.1980   23.7000   48.6490 C.3   311  LEU311      0.1561
    130  C         41.1030   22.2400   49.0900 C.2   311  LEU311      0.2260
    131  O         40.0360   21.6270   48.9930 O.2   311  LEU311     -0.2867
    132  CB        40.9930   23.7810   47.1340 C.3   311  LEU311      0.0270
    133  CG        41.0140   25.1700   46.5000 C.3   311  LEU311      0.0019
    134  CD1       42.4170   25.7160   46.5480 C.3   311  LEU311      0.0001
    135  CD2       40.5350   25.0900   45.0590 C.3   311  LEU311      0.0001
    136  N         37.4440   20.0530   48.1910 N.3   315  TYR315     -0.1241
    137  CA        37.3690   18.9010   47.3040 C.3   315  TYR315      0.1605
    138  C         37.0230   17.5980   47.9930 C.2   315  TYR315      0.2264
    139  O         36.0130   16.9790   47.6630 O.2   315  TYR315     -0.2867
    140  CB        38.6650   18.7500   46.5070 C.3   315  TYR315      0.0534
    141  CG        38.7070   19.6880   45.3260 C.ar  315  TYR315     -0.0201
    142  CD1       38.6830   21.0720   45.5140 C.ar  315  TYR315     -0.0009
    143  CD2       38.7010   19.1990   44.0190 C.ar  315  TYR315     -0.0009
    144  CE1       38.6460   21.9480   44.4310 C.ar  315  TYR315      0.0417
    145  CE2       38.6640   20.0670   42.9260 C.ar  315  TYR315      0.0417
    146  CZ        38.6350   21.4420   43.1420 C.ar  315  TYR315      0.1957
    147  OH        38.5830   22.3100   42.0740 O.3   315  TYR315     -0.2866
    148  N         48.0930   26.0330   38.0140 N.3   345  PRO345     -0.2102
    149  CA        46.9150   26.0930   38.8910 C.3   345  PRO345      0.1504
    150  C         45.8340   25.1040   38.4790 C.2   345  PRO345      0.2575
    151  O         45.5170   24.1670   39.2100 O.2   345  PRO345     -0.2718
    152  CB        46.4560   27.5320   38.7560 C.3   345  PRO345      0.0282
    153  CG        47.7120   28.2560   38.4750 C.3   345  PRO345      0.0208
    154  CD        48.4240   27.3710   37.4960 C.3   345  PRO345      0.0893
    155  N         45.3050   25.3040   37.2790 N.am  346  ASP346     -0.1974
    156  CA        44.2460   24.4620   36.7460 C.3   346  ASP346      0.1708
    157  C         44.5920   22.9760   36.6780 C.2   346  ASP346      0.2293
    158  O         44.1840   22.2100   37.5430 O.2   346  ASP346     -0.2864
    159  CB        43.8390   24.9590   35.3550 C.3   346  ASP346      0.1436
    160  CG        42.4580   24.4820   34.9430 C.2   346  ASP346      0.3671
    161  OD1       42.1120   24.6340   33.7550 O.co2 346  ASP346     -0.2456
    162  OD2       41.7100   23.9690   35.8010 O.co2 346  ASP346     -0.2456
    163  N         44.8330   20.7590   39.6960 N.3   349  ILE349     -0.1245
    164  CA        43.5440   20.5110   40.3200 C.3   349  ILE349      0.1561
    165  C         42.7620   19.4950   39.4980 C.2   349  ILE349      0.2260
    166  O         42.3150   18.4810   40.0250 O.2   349  ILE349     -0.2867
    167  CB        42.7290   21.8080   40.4140 C.3   349  ILE349      0.0252
    168  CG1       43.5050   22.8360   41.2340 C.3   349  ILE349      0.0019
    169  CG2       41.3770   21.5310   41.0360 C.3   349  ILE349      0.0019
    170  CD1       42.8870   24.1970   41.2160 C.3   349  ILE349      0.0001
@<TRIPOS>BOND
     1   118   117   ar
     2    50    48   ar
     3   114   113    2
     4    49    48   ar
     5   117   119   ar
     6   117   116    1
     7    48    47    1
     8   113   112    1
     9   115   116    1
    10   115   112    1
    11    56    57    1
    12    56    55    1
    13    57    51    1
    14   112   111    1
    15    47    46    1
    16    55    52    1
    17    51    52    1
    18    51    44   am
    19   111   105   am
    20    46    43    1
    21    43    44    1
    22    43    42    1
    23    52    53    1
    24    44    45    2
    25   106   105    2
    26   105   104    1
    27    54    53    2
    28    53    58   am
    29   110   108   ar
    30    80    81    1
    31    80    79    1
    32   104   103    1
    33   104   107    1
    34   108   107    1
    35   108   109   ar
    36    58    59    1
    37    79    78    1
    38   161   160   ar
    39    59    60    1
    40    68    66    1
    41    78    77    1
    42   160   159    1
    43   160   162   ar
    44    62    60   am
    45    62    63    1
    46    60    61    2
    47    66    63    1
    48    66    67    1
    49   159   156    1
    50    77    74    1
    51    63    64    1
    52    87    86    1
    53   157   156    1
    54   157   158    2
    55   156   155    1
    56    74    73    1
    57    74    75    1
    58    69    64   am
    59    69    70    1
    60    73    71   am
    61    64    65    2
    62   155   150   am
    63   154   148    1
    64   154   153    1
    65    82    75   am
    66    82    83    1
    67    75    76    2
    68    86    83    1
    69    86    88    1
    70   148   149    1
    71    71    70    1
    72    71    72    2
    73    83    84    1
    74   153   152    1
    75   150   149    1
    76   150   151    2
    77   152   149    1
    78   165   166    2
    79   165   164    1
    80    41    39    1
    81   163   164    1
    82    84    89   am
    83    84    85    2
    84    89    90    1
    85   164   167    1
    86   167   169    1
    87   167   168    1
    88    39    40    1
    89    39    38    2
    90   170   168    1
    91    38    37    1
    92   102   100   ar
    93    90    93    1
    94    90    91    1
    95   147   146    1
    96    91    92    2
    97    37    36    1
    98   100    99    1
    99   100   101   ar
   100   145   146   ar
   101   145   143   ar
   102    94    95    1
   103   146   144   ar
   104    99    98    1
   105    36    35    1
   106   127   125    1
   107    98    95    1
   108   143   141   ar
   109    95    96    1
   110   144   142   ar
   111    35    32    1
   112   126   124    1
   113     8     6   ar
   114   135   133    1
   115   125   124    1
   116   124   121    1
   117   141   142   ar
   118   141   140    1
   119    96    97    2
   120    34    33    2
   121    32    33    1
   122    32    31    1
   123    21    20    1
   124     6     5    1
   125     6     7   ar
   126   133   134    1
   127   133   132    1
   128   140   137    1
   129     5     2    1
   130    20    22    1
   131    20    17    1
   132   121   122    1
   133   121   120    1
   134    26    25    2
   135   122   123    2
   136   132   129    1
   137   137   138    1
   138   137   136    1
   139     1     2    1
   140    17    18    1
   141    17    16    1
   142   139   138    2
   143     4     3    2
   144     2     3    1
   145    25    24    1
   146    23    18   am
   147    23    24    1
   148     3     9   am
   149    18    19    2
   150    16    11   am
   151    12    11    2
   152   129   128    1
   153   129   130    1
   154    24    27    1
   155    11    10    1
   156    28    27    1
   157    28    30    1
   158   131   130    2
   159     9    10    1
   160     9    15    1
   161    27    29    1
   162    10    13    1
   163    15    14    1
   164    13    14    1
