@<TRIPOS>MOLECULE
tmp/1qvrA01.pdb
 180 170 0 0 0
SMALL
GASTEIGER

@<TRIPOS>ATOM
      1  N         71.3260    2.3510   26.5330 N.3   526  ARG526     -0.1231
      2  CA        71.0210    2.6210   25.1390 C.3   526  ARG526      0.1694
      3  C         72.2010    3.1570   24.3370 C.2   526  ARG526      0.2592
      4  O         72.2600    2.9680   23.1290 O.2   526  ARG526     -0.2718
      5  CB        69.8400    3.5890   25.0430 C.3   526  ARG526      0.0321
      6  CG        68.5350    3.0150   25.5790 C.3   526  ARG526      0.0489
      7  CD        67.3690    3.9730   25.3820 C.3   526  ARG526      0.2205
      8  NE        67.2940    4.4700   24.0100 N.pl3 526  ARG526     -0.0865
      9  CZ        66.3250    5.2550   23.5480 C.cat 526  ARG526      0.5346
     10  NH1       65.3350    5.6340   24.3470 N.pl3 526  ARG526      0.1354
     11  NH2       66.3560    5.6790   22.2890 N.pl3 526  ARG526      0.1354
     12  N         73.1390    3.8270   25.0000 N.am  527  VAL527     -0.1966
     13  CA        74.3040    4.3670   24.3040 C.3   527  VAL527      0.1727
     14  C         75.5460    3.5600   24.6540 C.2   527  VAL527      0.2616
     15  O         75.9860    3.5500   25.8000 O.2   527  VAL527     -0.2715
     16  CB        74.5560    5.8480   24.6760 C.3   527  VAL527      0.0290
     17  CG1       75.8030    6.3640   23.9670 C.3   527  VAL527      0.0023
     18  CG2       73.3650    6.6960   24.2880 C.3   527  VAL527      0.0023
     19  N         76.1100    2.8900   23.6590 N.am  528  VAL528     -0.1977
     20  CA        77.2960    2.0690   23.8580 C.3   528  VAL528      0.1596
     21  C         78.5790    2.8930   23.8200 C.2   528  VAL528      0.2287
     22  O         78.7750    3.7140   22.9280 O.2   528  VAL528     -0.2864
     23  CB        77.3920    0.9820   22.7630 C.3   528  VAL528      0.0276
     24  CG1       78.6980    0.2130   22.8910 C.3   528  VAL528      0.0022
     25  CG2       76.2010    0.0480   22.8520 C.3   528  VAL528      0.0022
     26  N         81.4820    5.6430   24.4550 N.3   530  GLN530     -0.1245
     27  CA        81.4850    7.0970   24.6200 C.3   530  GLN530      0.1566
     28  C         81.3710    7.4890   26.0940 C.2   530  GLN530      0.2260
     29  O         80.7670    8.5100   26.4400 O.2   530  GLN530     -0.2867
     30  CB        80.3350    7.7260   23.8170 C.3   530  GLN530      0.0367
     31  CG        80.3100    7.3050   22.3630 C.3   530  GLN530      0.0905
     32  CD        81.5090    7.8040   21.5920 C.2   530  GLN530      0.2608
     33  OE1       82.6230    7.8490   22.1100 O.2   530  GLN530     -0.2717
     34  NE2       81.2910    8.1690   20.3390 N.am  530  GLN530     -0.0878
     35  N         80.9750   10.6840   12.9950 N.3   564  THR564     -0.1203
     36  CA        79.5400   10.6210   12.7510 C.3   564  THR564      0.1994
     37  C         78.9730    9.2580   13.1300 C.2   564  THR564      0.2618
     38  O         79.6970    8.2670   13.1850 O.2   564  THR564     -0.2717
     39  CB        79.2280   10.8710   11.2680 C.3   564  THR564      0.1784
     40  OG1       79.8670   12.0770   10.8430 O.3   564  THR564     -0.2211
     41  CG2       77.7450   11.0130   11.0580 C.3   564  THR564      0.0376
     42  N         77.6700    9.2290   13.3940 N.am  565  GLY565     -0.1942
     43  CA        76.9920    7.9950   13.7500 C.3   565  GLY565      0.2014
     44  C         77.6940    7.1150   14.7620 C.2   565  GLY565      0.2639
     45  O         77.7880    5.9070   14.5690 O.2   565  GLY565     -0.2714
     46  N         78.1850    7.7090   15.8450 N.am  566  VAL566     -0.1963
     47  CA        78.8680    6.9390   16.8760 C.3   566  VAL566      0.1727
     48  C         78.3380    7.2260   18.2750 C.2   566  VAL566      0.2617
     49  O         78.9340    6.8010   19.2650 O.2   566  VAL566     -0.2715
     50  CB        80.3920    7.1890   16.8500 C.3   566  VAL566      0.0290
     51  CG1       80.9740    6.6250   15.5750 C.3   566  VAL566      0.0023
     52  CG2       80.6880    8.6780   16.9390 C.3   566  VAL566      0.0023
     53  N         77.2270    7.9540   18.3580 N.am  567  GLY567     -0.1940
     54  CA        76.6520    8.2370   19.6580 C.3   567  GLY567      0.2014
     55  C         75.9340    9.5580   19.8630 C.2   567  GLY567      0.2639
     56  O         74.8860    9.6000   20.5000 O.2   567  GLY567     -0.2714
     57  N         76.4840   10.6370   19.3240 N.am  568  LYS568     -0.1963
     58  CA        75.8970   11.9660   19.4970 C.3   568  LYS568      0.1728
     59  C         74.3760   12.0610   19.5410 C.2   568  LYS568      0.2617
     60  O         73.8000   12.2800   20.6030 O.2   568  LYS568     -0.2715
     61  CB        76.4360   12.9170   18.4340 C.3   568  LYS568      0.0311
     62  CG        77.9400   13.1130   18.5020 C.3   568  LYS568      0.0038
     63  CD        78.4020   14.1200   17.4710 C.3   568  LYS568      0.0206
     64  CE        79.9120   14.2250   17.4220 C.3   568  LYS568      0.1093
     65  NZ        80.3420   15.1650   16.3550 N.3   568  LYS568     -0.1314
     66  N         73.7170   11.9080   18.4000 N.am  569  THR569     -0.1937
     67  CA        72.2620   12.0070   18.3790 C.3   569  THR569      0.2028
     68  C         71.5990   10.9690   19.2820 C.2   569  THR569      0.2642
     69  O         70.6000   11.2580   19.9340 O.2   569  THR569     -0.2714
     70  CB        71.7200   11.8600   16.9560 C.3   569  THR569      0.1808
     71  OG1       72.3870   12.7920   16.0980 O.3   569  THR569     -0.2208
     72  CG2       70.2260   12.1280   16.9240 C.3   569  THR569      0.0379
     73  N         72.1530    9.7640   19.3260 N.am  570  GLU570     -0.1976
     74  CA        71.6000    8.7220   20.1770 C.3   570  GLU570      0.1602
     75  C         71.5750    9.1840   21.6160 C.2   570  GLU570      0.2287
     76  O         70.5470    9.1210   22.2820 O.2   570  GLU570     -0.2864
     77  CB        72.4360    7.4530   20.0790 C.3   570  GLU570      0.0415
     78  CG        71.8140    6.3970   19.2050 C.3   570  GLU570      0.1163
     79  CD        70.5700    5.8120   19.8210 C.2   570  GLU570      0.3649
     80  OE1       69.7110    5.3280   19.0570 O.co2 570  GLU570     -0.2457
     81  OE2       70.4580    5.8290   21.0670 O.co2 570  GLU570     -0.2457
     82  N         68.9980   11.6890   22.1700 N.3   573  LYS573     -0.1245
     83  CA        67.6860   11.0580   22.2540 C.3   573  LYS573      0.1561
     84  C         67.5140   10.3660   23.5970 C.2   573  LYS573      0.2260
     85  O         66.5610   10.6170   24.3400 O.2   573  LYS573     -0.2867
     86  CB        67.5330   10.0080   21.1520 C.3   573  LYS573      0.0271
     87  CG        67.0780   10.5320   19.8080 C.3   573  LYS573      0.0035
     88  CD        67.1580    9.4260   18.7600 C.3   573  LYS573      0.0206
     89  CE        66.4930    8.1370   19.2550 C.3   573  LYS573      0.1093
     90  NZ        66.6580    6.9910   18.3100 N.3   573  LYS573     -0.1314
     91  N         64.6310   19.0290   17.8020 N.3   588  ARG588     -0.1245
     92  CA        65.7760   19.1360   16.9290 C.3   588  ARG588      0.1563
     93  C         65.7210   20.3700   16.0480 C.2   588  ARG588      0.2260
     94  O         64.6530   20.8300   15.6660 O.2   588  ARG588     -0.2867
     95  CB        65.8740   17.8750   16.0780 C.3   588  ARG588      0.0307
     96  CG        67.2220   17.6640   15.4270 C.3   588  ARG588      0.0489
     97  CD        67.3780   16.2070   15.0610 C.3   588  ARG588      0.2205
     98  NE        68.7060   15.8990   14.5510 N.pl3 588  ARG588     -0.0865
     99  CZ        69.1180   14.6670   14.2840 C.cat 588  ARG588      0.5346
    100  NH1       68.3020   13.6420   14.4830 N.pl3 588  ARG588      0.1354
    101  NH2       70.3400   14.4590   13.8160 N.pl3 588  ARG588      0.1354
    102  N         84.0460    3.6900   17.1510 N.3   710  LEU710     -0.1245
    103  CA        83.6200    2.5190   17.9140 C.3   710  LEU710      0.1561
    104  C         84.5210    1.3100   17.6700 C.2   710  LEU710      0.2260
    105  O         85.1300    1.1780   16.6020 O.2   710  LEU710     -0.2867
    106  CB        82.1830    2.1480   17.5550 C.3   710  LEU710      0.0270
    107  CG        81.0870    3.1740   17.8300 C.3   710  LEU710      0.0019
    108  CD1       79.7650    2.6340   17.3230 C.3   710  LEU710      0.0001
    109  CD2       81.0100    3.4700   19.3170 C.3   710  LEU710      0.0001
    110  N         76.0230   -2.9330   20.2810 N.3   718  ILE718     -0.1245
    111  CA        74.9610   -2.1410   19.6760 C.3   718  ILE718      0.1561
    112  C         73.9960   -3.0990   18.9990 C.2   718  ILE718      0.2260
    113  O         72.7810   -2.9540   19.1140 O.2   718  ILE718     -0.2867
    114  CB        75.5070   -1.1490   18.6270 C.3   718  ILE718      0.0252
    115  CG1       76.4210   -0.1300   19.3010 C.3   718  ILE718      0.0019
    116  CG2       74.3510   -0.4140   17.9510 C.3   718  ILE718      0.0019
    117  CD1       76.9350    0.9410   18.3680 C.3   718  ILE718      0.0001
    118  N         71.6800   -4.5190   21.7330 N.3   721  ILE721     -0.1231
    119  CA        70.6720   -3.5480   22.1380 C.3   721  ILE721      0.1692
    120  C         69.7410   -3.2280   20.9750 C.2   721  ILE721      0.2591
    121  O         68.5870   -2.8700   21.1750 O.2   721  ILE721     -0.2718
    122  CB        71.3160   -2.2380   22.6640 C.3   721  ILE721      0.0266
    123  CG1       70.2640   -1.1320   22.7090 C.3   721  ILE721      0.0019
    124  CG2       72.5090   -1.8490   21.8110 C.3   721  ILE721      0.0020
    125  CD1       70.7970    0.1910   23.1580 C.3   721  ILE721      0.0001
    126  N         70.2460   -3.3660   19.7570 N.am  722  GLN722     -0.1979
    127  CA        69.4450   -3.1060   18.5700 C.3   722  GLN722      0.1601
    128  C         68.4210   -4.2360   18.4140 C.2   722  GLN722      0.2287
    129  O         67.2520   -4.0030   18.0940 O.2   722  GLN722     -0.2864
    130  CB        70.3550   -3.0460   17.3410 C.3   722  GLN722      0.0394
    131  CG        69.6670   -2.5870   16.0790 C.3   722  GLN722      0.0908
    132  CD        69.1050   -1.1970   16.2170 C.2   722  GLN722      0.2608
    133  OE1       69.8330   -0.2530   16.5150 O.2   722  GLN722     -0.2717
    134  NE2       67.8010   -1.0600   16.0040 N.am  722  GLN722     -0.0878
    135  N         80.9660    6.2220    8.0200 N.3   756  PHE756     -0.1241
    136  CA        79.5570    6.3850    8.3530 C.3   756  PHE756      0.1605
    137  C         79.2080    5.9530    9.7600 C.2   756  PHE756      0.2264
    138  O         78.1530    6.3150   10.2790 O.2   756  PHE756     -0.2867
    139  CB        78.6900    5.6230    7.3510 C.3   756  PHE756      0.0534
    140  CG        78.5040    6.3400    6.0480 C.ar  756  PHE756     -0.0203
    141  CD1       77.8930    5.7060    4.9700 C.ar  756  PHE756     -0.0042
    142  CD2       78.9190    7.6640    5.9050 C.ar  756  PHE756     -0.0042
    143  CE1       77.6960    6.3790    3.7700 C.ar  756  PHE756     -0.0003
    144  CE2       78.7290    8.3470    4.7120 C.ar  756  PHE756     -0.0003
    145  CZ        78.1150    7.7050    3.6390 C.ar  756  PHE756     -0.0000
    146  N         78.0600    3.5720   12.8540 N.3   758  ALA758     -0.1231
    147  CA        77.0780    2.5240   13.0420 C.3   758  ALA758      0.1694
    148  C         75.7410    2.9290   12.4560 C.2   758  ALA758      0.2591
    149  O         74.6960    2.4590   12.8990 O.2   758  ALA758     -0.2718
    150  CB        76.9260    2.2160   14.5170 C.3   758  ALA758      0.0304
    151  N         75.7630    3.8030   11.4600 N.am  759  ARG759     -0.1980
    152  CA        74.5090    4.2250   10.8630 C.3   759  ARG759      0.1597
    153  C         73.9030    3.0830   10.0560 C.2   759  ARG759      0.2287
    154  O         72.7150    2.7860   10.1820 O.2   759  ARG759     -0.2864
    155  CB        74.7060    5.4560    9.9720 C.3   759  ARG759      0.0334
    156  CG        73.3890    6.0640    9.5190 C.3   759  ARG759      0.0492
    157  CD        73.5730    7.3110    8.6720 C.3   759  ARG759      0.2205
    158  NE        72.2840    7.9220    8.3390 N.pl3 759  ARG759     -0.0865
    159  CZ        71.3910    7.4000    7.5000 C.cat 759  ARG759      0.5346
    160  NH1       71.6370    6.2490    6.8880 N.pl3 759  ARG759      0.1354
    161  NH2       70.2410    8.0270    7.2850 N.pl3 759  ARG759      0.1354
    162  N         74.2310   -0.2840   10.2360 N.3   761  LEU761     -0.1231
    163  CA        73.7380   -1.4230   11.0060 C.3   761  LEU761      0.1693
    164  C         72.2290   -1.6300   10.9070 C.2   761  LEU761      0.2591
    165  O         71.7640   -2.7550   10.7040 O.2   761  LEU761     -0.2718
    166  CB        74.1340   -1.2790   12.4780 C.3   761  LEU761      0.0284
    167  CG        73.6880   -2.4250   13.3930 C.3   761  LEU761      0.0019
    168  CD1       74.2620   -3.7210   12.8730 C.3   761  LEU761      0.0001
    169  CD2       74.1390   -2.1830   14.8200 C.3   761  LEU761      0.0001
    170  N         71.4680   -0.5470   11.0450 N.am  762  ARG762     -0.1980
    171  CA        70.0090   -0.6290   10.9830 C.3   762  ARG762      0.1597
    172  C         69.5380   -1.2060    9.6530 C.2   762  ARG762      0.2287
    173  O         68.8370   -2.2140    9.6200 O.2   762  ARG762     -0.2864
    174  CB        69.3810    0.7480   11.1810 C.3   762  ARG762      0.0334
    175  CG        67.9870    0.7000   11.7730 C.3   762  ARG762      0.0492
    176  CD        67.2390    1.9960   11.5250 C.3   762  ARG762      0.2205
    177  NE        66.9450    2.1640   10.1060 N.pl3 762  ARG762     -0.0865
    178  CZ        66.2530    3.1750    9.5950 C.cat 762  ARG762      0.5346
    179  NH1       65.7810    4.1230   10.3880 N.pl3 762  ARG762      0.1354
    180  NH2       66.0240    3.2300    8.2880 N.pl3 762  ARG762      0.1354
@<TRIPOS>BOND
     1   145   143   ar
     2   145   144   ar
     3   143   141   ar
     4   144   142   ar
     5   141   140   ar
     6   142   140   ar
     7   140   139    1
     8   160   159    1
     9   161   159    1
    10   139   136    1
    11   159   158    2
    12   135   136    1
    13   180   178    1
    14   158   157    1
    15   136   137    1
    16   157   156    1
    17   156   155    1
    18   178   177    2
    19   178   179    1
    20   173   172    2
    21   172   171    1
    22   137   138    2
    23   155   152    1
    24   153   154    2
    25   153   152    1
    26   177   176    1
    27   162   163    1
    28   165   164    2
    29    40    39    1
    30   152   151    1
    31   164   163    1
    32   164   170   am
    33   171   170    1
    34   171   174    1
    35   163   166    1
    36    41    39    1
    37   174   175    1
    38    39    36    1
    39   151   148   am
    40   176   175    1
    41   148   149    2
    42   148   147    1
    43   166   167    1
    44    36    35    1
    45    36    37    1
    46   146   147    1
    47   168   167    1
    48   147   150    1
    49    37    38    2
    50    37    42   am
    51   167   169    1
    52    42    43    1
    53    43    44    1
    54   101    99    1
    55    99   100    1
    56    99    98    2
    57    98    97    1
    58    45    44    2
    59    44    46   am
    60    97    96    1
    61    96    95    1
    62    51    50    1
    63    94    93    2
    64    46    47    1
    65   134   132   am
    66    93    92    1
    67    95    92    1
    68   131   132    1
    69   131   130    1
    70    71    70    1
    71   132   133    2
    72    65    64    1
    73   105   104    2
    74    50    47    1
    75    50    52    1
    76    47    48    1
    77    72    70    1
    78    92    91    1
    79    70    67    1
    80   102   103    1
    81   108   107    1
    82   130   127    1
    83    64    63    1
    84    63    62    1
    85   106   107    1
    86   106   103    1
    87   104   103    1
    88   107   109    1
    89   116   114    1
    90   129   128    2
    91    48    53   am
    92    48    49    2
    93    90    89    1
    94    53    54    1
    95   117   115    1
    96    67    66    1
    97    67    68    1
    98    66    59   am
    99   128   127    1
   100    61    62    1
   101    61    58    1
   102   127   126    1
   103   114   115    1
   104   114   111    1
   105    88    89    1
   106    88    87    1
   107   112   113    2
   108   112   111    1
   109    80    79   ar
   110    78    79    1
   111    78    77    1
   112    68    73   am
   113    68    69    2
   114    57    58    1
   115    57    55   am
   116    73    74    1
   117    58    59    1
   118    59    60    2
   119    54    55    1
   120   111   110    1
   121   126   120   am
   122    87    86    1
   123    79    81   ar
   124    55    56    2
   125    77    74    1
   126    74    75    1
   127    34    32   am
   128   120   121    2
   129   120   119    1
   130    86    83    1
   131    32    33    2
   132    32    31    1
   133    75    76    2
   134   118   119    1
   135   124   122    1
   136   119   122    1
   137    82    83    1
   138    83    84    1
   139    11     9    1
   140    31    30    1
   141   122   123    1
   142   123   125    1
   143    23    25    1
   144    23    24    1
   145    23    20    1
   146    22    21    2
   147     4     3    2
   148     9     8    2
   149     9    10    1
   150    84    85    2
   151    19    20    1
   152    19    14   am
   153    30    27    1
   154    21    20    1
   155    17    16    1
   156     8     7    1
   157    18    16    1
   158    13    14    1
   159    13    16    1
   160    13    12    1
   161     3    12   am
   162     3     2    1
   163    26    27    1
   164    27    28    1
   165    14    15    2
   166     5     2    1
   167     5     6    1
   168     2     1    1
   169     7     6    1
   170    28    29    2
