@<TRIPOS>MOLECULE
tmp/1qvuC01.pdb
 120 113 0 0 0
SMALL
GASTEIGER

@<TRIPOS>ATOM
      1  N        -59.7840  -48.8200   11.4480 N.3    53  LEU53      -0.1245
      2  CA       -60.8290  -47.9700   10.8390 C.3    53  LEU53       0.1561
      3  C        -60.5790  -46.4460   11.0020 C.2    53  LEU53       0.2260
      4  O        -60.7230  -45.6390   10.0590 O.2    53  LEU53      -0.2867
      5  CB       -62.2020  -48.3990   11.4040 C.3    53  LEU53       0.0270
      6  CG       -63.2300  -49.0940   10.4520 C.3    53  LEU53       0.0019
      7  CD1      -62.5500  -50.0030    9.4630 C.3    53  LEU53       0.0001
      8  CD2      -64.2340  -49.9120   11.2500 C.3    53  LEU53       0.0001
      9  N        -57.8330  -45.5400    8.7940 N.3    56  GLU56      -0.1231
     10  CA       -58.2750  -45.4960    7.4050 C.3    56  GLU56       0.1699
     11  C        -59.0080  -44.1940    7.1170 C.2    56  GLU56       0.2592
     12  O        -58.7760  -43.6100    6.0640 O.2    56  GLU56      -0.2718
     13  CB       -59.2050  -46.6320    7.0660 C.3    56  GLU56       0.0402
     14  CG       -58.5370  -47.9910    7.1440 C.3    56  GLU56       0.1161
     15  CD       -57.4690  -48.1870    6.0800 C.2    56  GLU56       0.3649
     16  OE1      -57.7970  -47.9590    4.8890 O.co2  56  GLU56      -0.2457
     17  OE2      -56.3200  -48.5670    6.4360 O.co2  56  GLU56      -0.2457
     18  N        -59.8940  -43.7710    8.0350 N.am   57  GLU57      -0.1979
     19  CA       -60.6080  -42.5150    7.8580 C.3    57  GLU57       0.1602
     20  C        -59.6270  -41.3930    7.6020 C.2    57  GLU57       0.2287
     21  O        -59.7920  -40.5920    6.6710 O.2    57  GLU57      -0.2864
     22  CB       -61.4780  -42.1690    9.0660 C.3    57  GLU57       0.0415
     23  CG       -62.6120  -41.1360    8.7540 C.3    57  GLU57       0.1163
     24  CD       -63.7050  -41.6200    7.7370 C.2    57  GLU57       0.3649
     25  OE1      -64.2720  -42.7240    8.0180 O.co2  57  GLU57      -0.2457
     26  OE2      -63.9610  -40.9440    6.6850 O.co2  57  GLU57      -0.2457
     27  N        -58.1150  -41.3620    4.3370 N.3    60  TRP60      -0.1241
     28  CA       -59.1580  -40.8780    3.4230 C.3    60  TRP60       0.1605
     29  C        -59.3760  -39.3660    3.5260 C.2    60  TRP60       0.2264
     30  O        -59.6190  -38.7210    2.5230 O.2    60  TRP60      -0.2867
     31  CB       -60.4910  -41.6230    3.6300 C.3    60  TRP60       0.0550
     32  CG       -61.7180  -40.9310    2.9840 C.ar   60  TRP60       0.0003
     33  CD1      -62.5120  -39.9560    3.5520 C.ar   60  TRP60       0.0946
     34  CD2      -62.2310  -41.1220    1.6480 C.ar   60  TRP60       0.0152
     35  NE1      -63.4740  -39.5340    2.6550 N.ar   60  TRP60      -0.2442
     36  CE2      -63.3260  -40.2290    1.4840 C.ar   60  TRP60       0.0810
     37  CE3      -61.8700  -41.9510    0.5790 C.ar   60  TRP60       0.0012
     38  CZ2      -64.0580  -40.1450    0.2940 C.ar   60  TRP60       0.0191
     39  CZ3      -62.5930  -41.8650   -0.6010 C.ar   60  TRP60       0.0001
     40  CH2      -63.6790  -40.9640   -0.7340 C.ar   60  TRP60       0.0015
     41  N        -56.4810  -37.8310    1.6940 N.3    63  GLN63      -0.1245
     42  CA       -56.6450  -38.0550    0.2750 C.3    63  GLN63       0.1566
     43  C        -57.6100  -36.9930   -0.2690 C.2    63  GLN63       0.2260
     44  O        -57.3550  -36.3820   -1.2850 O.2    63  GLN63      -0.2867
     45  CB       -57.2060  -39.4720    0.0250 C.3    63  GLN63       0.0367
     46  CG       -56.1850  -40.6320   -0.3320 C.3    63  GLN63       0.0905
     47  CD       -56.8630  -42.0550   -0.5040 C.2    63  GLN63       0.2608
     48  OE1      -57.7450  -42.2520   -1.3620 O.2    63  GLN63      -0.2717
     49  NE2      -56.4380  -43.0270    0.3190 N.am   63  GLN63      -0.0878
     50  N        -66.8310  -41.4700   -3.2070 N.3    85  SER85      -0.1217
     51  CA       -67.3220  -42.4900   -2.2800 C.3    85  SER85       0.1889
     52  C        -67.8360  -43.6960   -3.0510 C.2    85  SER85       0.2288
     53  O        -67.7020  -44.8250   -2.5980 O.2    85  SER85      -0.2866
     54  CB       -68.4620  -41.9220   -1.4160 C.3    85  SER85       0.2089
     55  OG       -68.0880  -40.7220   -0.7450 O.3    85  SER85      -0.2183
     56  N        -64.5220  -45.2770   -5.1020 N.3    88  THR88      -0.1203
     57  CA       -63.5520  -45.8870   -4.2210 C.3    88  THR88       0.1994
     58  C        -64.0410  -47.1200   -3.4600 C.2    88  THR88       0.2617
     59  O        -63.2590  -48.0170   -3.2600 O.2    88  THR88      -0.2717
     60  CB       -62.9600  -44.8750   -3.2350 C.3    88  THR88       0.1784
     61  OG1      -64.0000  -44.4000   -2.3740 O.3    88  THR88      -0.2211
     62  CG2      -62.3390  -43.7040   -3.9870 C.3    88  THR88       0.0376
     63  N        -65.3060  -47.2230   -3.0590 N.am   89  GLU89      -0.1979
     64  CA       -65.7000  -48.4220   -2.3040 C.3    89  GLU89       0.1602
     65  C        -65.7020  -49.6210   -3.2290 C.2    89  GLU89       0.2287
     66  O        -65.5380  -50.7550   -2.7850 O.2    89  GLU89      -0.2864
     67  CB       -67.0810  -48.2830   -1.6470 C.3    89  GLU89       0.0415
     68  CG       -68.2850  -48.5120   -2.6080 C.3    89  GLU89       0.1163
     69  CD       -68.6700  -50.0130   -2.8720 C.2    89  GLU89       0.3649
     70  OE1      -68.7600  -50.4190   -4.0670 O.co2  89  GLU89      -0.2457
     71  OE2      -68.9080  -50.7750   -1.8940 O.co2  89  GLU89      -0.2457
     72  N        -62.4050  -51.2290   -2.6130 N.3    92  TYR92      -0.1241
     73  CA       -61.8370  -51.0080   -1.2820 C.3    92  TYR92       0.1605
     74  C        -61.8230  -52.3700   -0.5970 C.2    92  TYR92       0.2264
     75  O        -62.8660  -52.9200   -0.2550 O.2    92  TYR92      -0.2867
     76  CB       -62.6970  -50.0150   -0.5140 C.3    92  TYR92       0.0534
     77  CG       -62.0990  -49.5950    0.7980 C.ar   92  TYR92      -0.0201
     78  CD1      -62.7350  -49.9170    2.0010 C.ar   92  TYR92      -0.0009
     79  CD2      -60.8550  -48.9420    0.8500 C.ar   92  TYR92      -0.0009
     80  CE1      -62.1400  -49.6140    3.2280 C.ar   92  TYR92       0.0417
     81  CE2      -60.2510  -48.6290    2.0750 C.ar   92  TYR92       0.0417
     82  CZ       -60.8960  -48.9750    3.2640 C.ar   92  TYR92       0.1957
     83  OH       -60.3070  -48.7360    4.4960 O.3    92  TYR92      -0.2866
     84  N        -63.5460  -53.0870    2.8680 N.3    95  GLN95      -0.1245
     85  CA       -65.0030  -53.0280    2.7780 C.3    95  GLN95       0.1566
     86  C        -65.7270  -54.2640    3.2450 C.2    95  GLN95       0.2260
     87  O        -66.7330  -54.1780    3.9260 O.2    95  GLN95      -0.2867
     88  CB       -65.4550  -52.7110    1.3510 C.3    95  GLN95       0.0367
     89  CG       -66.8630  -52.1630    1.2720 C.3    95  GLN95       0.0905
     90  CD       -67.0460  -50.9260    2.1680 C.2    95  GLN95       0.2608
     91  OE1      -68.1660  -50.5780    2.5970 O.2    95  GLN95      -0.2717
     92  NE2      -65.9440  -50.2570    2.4480 N.am   95  GLN95      -0.0878
     93  N        -65.3740  -54.7660    6.9280 N.3    98  ILE98      -0.1245
     94  CA       -66.1870  -53.7160    7.5300 C.3    98  ILE98       0.1561
     95  C        -67.6320  -54.1570    7.6440 C.2    98  ILE98       0.2260
     96  O        -68.1820  -54.1450    8.7410 O.2    98  ILE98      -0.2867
     97  CB       -66.1310  -52.4200    6.7320 C.3    98  ILE98       0.0252
     98  CG1      -64.6930  -51.8740    6.7770 C.3    98  ILE98       0.0019
     99  CG2      -67.1350  -51.4350    7.3130 C.3    98  ILE98       0.0019
    100  CD1      -64.4040  -50.5960    5.9720 C.3    98  ILE98       0.0001
    101  N        -69.5910  -54.3430   11.1440 N.3   102  TYR102     -0.1241
    102  CA       -70.7170  -53.5120   11.5160 C.3   102  TYR102      0.1605
    103  C        -71.9490  -54.3320   11.7750 C.2   102  TYR102      0.2264
    104  O        -72.5250  -54.2660   12.8520 O.2   102  TYR102     -0.2867
    105  CB       -70.9810  -52.4960   10.4380 C.3   102  TYR102      0.0534
    106  CG       -70.1920  -51.2230   10.6320 C.ar  102  TYR102     -0.0201
    107  CD1      -68.8080  -51.1540   10.4150 C.ar  102  TYR102     -0.0009
    108  CD2      -70.8550  -50.0660   10.9800 C.ar  102  TYR102     -0.0009
    109  CE1      -68.1160  -49.9150   10.5430 C.ar  102  TYR102      0.0417
    110  CE2      -70.2060  -48.8570   11.0910 C.ar  102  TYR102      0.0417
    111  CZ       -68.8400  -48.7660   10.8720 C.ar  102  TYR102      0.1957
    112  OH       -68.2560  -47.5030   10.9310 O.3   102  TYR102     -0.2866
    113  N        -66.6220  -41.9060   14.6700 N.3   118  LEU118     -0.1245
    114  CA       -65.9930  -42.2200   13.4030 C.3   118  LEU118      0.1561
    115  C        -66.8500  -41.7490   12.2420 C.2   118  LEU118      0.2260
    116  O        -66.3620  -41.1200   11.3070 O.2   118  LEU118     -0.2867
    117  CB       -65.7910  -43.7260   13.3370 C.3   118  LEU118      0.0270
    118  CG       -64.9940  -44.3330   12.1940 C.3   118  LEU118      0.0019
    119  CD1      -63.7260  -43.4930   11.9220 C.3   118  LEU118      0.0001
    120  CD2      -64.6790  -45.7900   12.5570 C.3   118  LEU118      0.0001
@<TRIPOS>BOND
     1    56    57    1
     2    57    58    1
     3    57    60    1
     4    70    69   ar
     5    62    60    1
     6    58    59    2
     7    58    63   am
     8    60    61    1
     9    65    66    2
    10    65    64    1
    11    50    51    1
    12    63    64    1
    13    52    53    2
    14    52    51    1
    15    69    68    1
    16    69    71   ar
    17    72    73    1
    18    68    67    1
    19    64    67    1
    20    51    54    1
    21    54    55    1
    22    48    47    2
    23    44    43    2
    24    73    74    1
    25    73    76    1
    26    40    39   ar
    27    40    38   ar
    28    39    37   ar
    29    74    75    2
    30    76    77    1
    31    47    46    1
    32    47    49   am
    33    46    45    1
    34    43    42    1
    35    45    42    1
    36    42    41    1
    37    38    36   ar
    38    37    34   ar
    39    77    79   ar
    40    77    78   ar
    41    79    81   ar
    42    89    88    1
    43    89    90    1
    44    88    85    1
    45    36    34   ar
    46    36    35   ar
    47    34    32   ar
    48    78    80   ar
    49    81    82   ar
    50    90    92   am
    51    90    91    2
    52    30    29    2
    53    35    33   ar
    54    85    84    1
    55    85    86    1
    56    32    33   ar
    57    32    31    1
    58    80    82   ar
    59    86    87    2
    60    82    83    1
    61    28    29    1
    62    28    31    1
    63    28    27    1
    64    16    15   ar
    65   100    98    1
    66    12    11    2
    67    15    17   ar
    68    15    14    1
    69    21    20    2
    70    26    24   ar
    71    97    98    1
    72    97    99    1
    73    97    94    1
    74    93    94    1
    75    13    14    1
    76    13    10    1
    77    11    10    1
    78    11    18   am
    79    10     9    1
    80    94    95    1
    81    20    19    1
    82    95    96    2
    83    24    25   ar
    84    24    23    1
    85    19    18    1
    86    19    22    1
    87    23    22    1
    88     7     6    1
    89     4     3    2
    90   107   109   ar
    91   107   106   ar
    92   105   106    1
    93   105   102    1
    94     6     8    1
    95     6     5    1
    96   109   111   ar
    97   106   108   ar
    98     2     3    1
    99     2     5    1
   100     2     1    1
   101   111   112    1
   102   111   110   ar
   103   108   110   ar
   104   101   102    1
   105   116   115    2
   106   102   103    1
   107   103   104    2
   108   119   118    1
   109   118   120    1
   110   118   117    1
   111   115   114    1
   112   117   114    1
   113   114   113    1
