@<TRIPOS>MOLECULE
tmp/1qvuC00.pdb
 145 137 0 0 0
SMALL
GASTEIGER

@<TRIPOS>ATOM
      1  N        -59.8940  -43.7710    8.0350 N.3    57  GLU57      -0.1245
      2  CA       -60.6080  -42.5150    7.8580 C.3    57  GLU57       0.1567
      3  C        -59.6270  -41.3930    7.6020 C.2    57  GLU57       0.2260
      4  O        -59.7920  -40.5920    6.6710 O.2    57  GLU57      -0.2867
      5  CB       -61.4780  -42.1690    9.0660 C.3    57  GLU57       0.0388
      6  CG       -62.6120  -41.1360    8.7540 C.3    57  GLU57       0.1160
      7  CD       -63.7050  -41.6200    7.7370 C.2    57  GLU57       0.3649
      8  OE1      -64.2720  -42.7240    8.0180 O.co2  57  GLU57      -0.2457
      9  OE2      -63.9610  -40.9440    6.6850 O.co2  57  GLU57      -0.2457
     10  N        -63.5460  -53.0870    2.8680 N.3    95  GLN95      -0.1245
     11  CA       -65.0030  -53.0280    2.7780 C.3    95  GLN95       0.1566
     12  C        -65.7270  -54.2640    3.2450 C.2    95  GLN95       0.2260
     13  O        -66.7330  -54.1780    3.9260 O.2    95  GLN95      -0.2867
     14  CB       -65.4550  -52.7110    1.3510 C.3    95  GLN95       0.0367
     15  CG       -66.8630  -52.1630    1.2720 C.3    95  GLN95       0.0905
     16  CD       -67.0460  -50.9260    2.1680 C.2    95  GLN95       0.2608
     17  OE1      -68.1660  -50.5780    2.5970 O.2    95  GLN95      -0.2717
     18  NE2      -65.9440  -50.2570    2.4480 N.am   95  GLN95      -0.0878
     19  N        -65.3740  -54.7660    6.9280 N.3    98  ILE98      -0.1231
     20  CA       -66.1870  -53.7160    7.5300 C.3    98  ILE98       0.1692
     21  C        -67.6320  -54.1570    7.6440 C.2    98  ILE98       0.2591
     22  O        -68.1820  -54.1450    8.7410 O.2    98  ILE98      -0.2718
     23  CB       -66.1310  -52.4200    6.7320 C.3    98  ILE98       0.0266
     24  CG1      -64.6930  -51.8740    6.7770 C.3    98  ILE98       0.0019
     25  CG2      -67.1350  -51.4350    7.3130 C.3    98  ILE98       0.0020
     26  CD1      -64.4040  -50.5960    5.9720 C.3    98  ILE98       0.0001
     27  N        -68.2290  -54.5580    6.5120 N.am   99  ILE99      -0.1980
     28  CA       -69.6160  -55.0450    6.4660 C.3    99  ILE99       0.1595
     29  C        -69.7320  -56.1050    7.5500 C.2    99  ILE99       0.2287
     30  O        -70.5000  -55.9800    8.4890 O.2    99  ILE99      -0.2864
     31  CB       -69.9490  -55.7680    5.1320 C.3    99  ILE99       0.0276
     32  CG1      -69.5870  -54.9130    3.8990 C.3    99  ILE99       0.0022
     33  CG2      -71.3960  -56.2110    5.1620 C.3    99  ILE99       0.0022
     34  CD1      -70.4990  -53.7380    3.5890 C.3    99  ILE99       0.0001
     35  N        -69.5910  -54.3430   11.1440 N.3   102  TYR102     -0.1227
     36  CA       -70.7170  -53.5120   11.5160 C.3   102  TYR102      0.1736
     37  C        -71.9490  -54.3320   11.7750 C.2   102  TYR102      0.2596
     38  O        -72.5250  -54.2660   12.8520 O.2   102  TYR102     -0.2718
     39  CB       -70.9810  -52.4960   10.4380 C.3   102  TYR102      0.0548
     40  CG       -70.1920  -51.2230   10.6320 C.ar  102  TYR102     -0.0200
     41  CD1      -68.8080  -51.1540   10.4150 C.ar  102  TYR102     -0.0009
     42  CD2      -70.8550  -50.0660   10.9800 C.ar  102  TYR102     -0.0009
     43  CE1      -68.1160  -49.9150   10.5430 C.ar  102  TYR102      0.0417
     44  CE2      -70.2060  -48.8570   11.0910 C.ar  102  TYR102      0.0417
     45  CZ       -68.8400  -48.7660   10.8720 C.ar  102  TYR102      0.1957
     46  OH       -68.2560  -47.5030   10.9310 O.3   102  TYR102     -0.2866
     47  N        -72.3540  -55.1140   10.7880 N.am  103  THR103     -0.1953
     48  CA       -73.5230  -55.9630   10.9430 C.3   103  THR103      0.1897
     49  C        -73.1500  -57.0830   11.9030 C.2   103  THR103      0.2313
     50  O        -73.2480  -58.2550   11.5570 O.2   103  THR103     -0.2863
     51  CB       -73.9540  -56.6160    9.5910 C.3   103  THR103      0.1794
     52  OG1      -72.9390  -57.5260    9.1620 O.3   103  THR103     -0.2208
     53  CG2      -74.1740  -55.5640    8.4850 C.3   103  THR103      0.0378
     54  N        -73.6320  -53.6170   16.0100 N.3   106  TYR106     -0.1241
     55  CA       -74.4530  -52.4250   16.1000 C.3   106  TYR106      0.1605
     56  C        -75.4560  -52.5060   17.2560 C.2   106  TYR106      0.2264
     57  O        -76.3010  -51.6260   17.4180 O.2   106  TYR106     -0.2867
     58  CB       -75.1480  -52.1150   14.7550 C.3   106  TYR106      0.0534
     59  CG       -76.2730  -53.0320   14.2960 C.ar  106  TYR106     -0.0201
     60  CD1      -77.4390  -52.4950   13.7280 C.ar  106  TYR106     -0.0009
     61  CD2      -76.1630  -54.4250   14.3730 C.ar  106  TYR106     -0.0009
     62  CE1      -78.4680  -53.3110   13.2490 C.ar  106  TYR106      0.0417
     63  CE2      -77.1840  -55.2630   13.8920 C.ar  106  TYR106      0.0417
     64  CZ       -78.3390  -54.6990   13.3310 C.ar  106  TYR106      0.1957
     65  OH       -79.3630  -55.5050   12.8680 O.3   106  TYR106     -0.2866
     66  N        -68.0080  -46.1460   17.1210 N.3   115  MET115     -0.1230
     67  CA       -68.3890  -46.2610   15.7190 C.3   115  MET115      0.1702
     68  C        -69.0260  -44.9800   15.2370 C.2   115  MET115      0.2592
     69  O        -69.1770  -44.7630   14.0340 O.2   115  MET115     -0.2718
     70  CB       -69.4250  -47.3530   15.5210 C.3   115  MET115      0.0401
     71  CG       -68.9060  -48.7640   15.5490 C.3   115  MET115      0.0596
     72  SD       -68.6710  -49.3590   13.9040 S.3   115  MET115     -0.1393
     73  CE       -67.0400  -48.6640   13.6050 C.3   115  MET115      0.0692
     74  N        -69.4510  -44.1520   16.1790 N.am  116  ASN116     -0.1974
     75  CA       -70.1120  -42.9250   15.7980 C.3   116  ASN116      0.1688
     76  C        -69.2070  -41.7270   15.7970 C.2   116  ASN116      0.2292
     77  O        -69.4490  -40.7880   15.0470 O.2   116  ASN116     -0.2864
     78  CB       -71.3600  -42.6640   16.6570 C.3   116  ASN116      0.1181
     79  CG       -72.6600  -42.8530   15.8600 C.2   116  ASN116      0.2629
     80  OD1      -72.9910  -43.9670   15.4350 O.2   116  ASN116     -0.2716
     81  ND2      -73.3870  -41.7550   15.6380 N.am  116  ASN116     -0.0877
     82  N        -66.6220  -41.9060   14.6700 N.3   118  LEU118     -0.1231
     83  CA       -65.9930  -42.2200   13.4030 C.3   118  LEU118      0.1693
     84  C        -66.8500  -41.7490   12.2420 C.2   118  LEU118      0.2591
     85  O        -66.3620  -41.1200   11.3070 O.2   118  LEU118     -0.2718
     86  CB       -65.7910  -43.7260   13.3370 C.3   118  LEU118      0.0284
     87  CG       -64.9940  -44.3330   12.1940 C.3   118  LEU118      0.0019
     88  CD1      -63.7260  -43.4930   11.9220 C.3   118  LEU118      0.0001
     89  CD2      -64.6790  -45.7900   12.5570 C.3   118  LEU118      0.0001
     90  N        -68.1400  -42.0760   12.3060 N.am  119  GLU119     -0.1979
     91  CA       -69.0950  -41.6840   11.2730 C.3   119  GLU119      0.1602
     92  C        -69.1460  -40.1630   11.2170 C.2   119  GLU119      0.2287
     93  O        -69.3200  -39.5630   10.1500 O.2   119  GLU119     -0.2864
     94  CB       -70.4910  -42.2430   11.5790 C.3   119  GLU119      0.0415
     95  CG       -71.5110  -41.9510   10.4660 C.3   119  GLU119      0.1163
     96  CD       -72.9170  -42.5010   10.7600 C.2   119  GLU119      0.3649
     97  OE1      -73.3940  -42.3270   11.9160 O.co2 119  GLU119     -0.2457
     98  OE2      -73.5460  -43.0860    9.8330 O.co2 119  GLU119     -0.2457
     99  N        -66.8530  -38.7580    8.7900 N.3   122  TYR122     -0.1241
    100  CA       -67.2870  -38.8410    7.4040 C.3   122  TYR122      0.1605
    101  C        -68.2450  -37.6740    7.1740 C.2   122  TYR122      0.2264
    102  O        -68.1030  -36.8990    6.2230 O.2   122  TYR122     -0.2867
    103  CB       -67.9940  -40.1720    7.1320 C.3   122  TYR122      0.0534
    104  CG       -68.6330  -40.2760    5.7440 C.ar  122  TYR122     -0.0201
    105  CD1      -67.8890  -39.9670    4.5790 C.ar  122  TYR122     -0.0009
    106  CD2      -69.9760  -40.6960    5.5870 C.ar  122  TYR122     -0.0009
    107  CE1      -68.4570  -40.0670    3.2960 C.ar  122  TYR122      0.0417
    108  CE2      -70.5540  -40.8010    4.3050 C.ar  122  TYR122      0.0417
    109  CZ       -69.7860  -40.4800    3.1700 C.ar  122  TYR122      0.1957
    110  OH       -70.3520  -40.5450    1.9170 O.3   122  TYR122     -0.2866
    111  N        -74.7160  -37.4580    3.7540 N.3   152  ALA152     -0.1231
    112  CA       -73.9330  -38.5890    4.1950 C.3   152  ALA152      0.1694
    113  C        -74.7180  -39.8980    4.0310 C.2   152  ALA152      0.2592
    114  O        -74.3190  -40.7620    3.2530 O.2   152  ALA152     -0.2718
    115  CB       -73.5150  -38.4040    5.6350 C.3   152  ALA152      0.0304
    116  N        -75.8400  -40.0440    4.7280 N.am  153  ASN153     -0.1974
    117  CA       -76.6230  -41.2760    4.6350 C.3   153  ASN153      0.1688
    118  C        -77.3760  -41.5010    3.3320 C.2   153  ASN153      0.2292
    119  O        -77.6280  -42.6360    2.9680 O.2   153  ASN153     -0.2864
    120  CB       -77.5860  -41.3670    5.8000 C.3   153  ASN153      0.1181
    121  CG       -76.8740  -41.3340    7.1100 C.2   153  ASN153      0.2629
    122  OD1      -76.1170  -42.2480    7.4500 O.2   153  ASN153     -0.2716
    123  ND2      -77.0810  -40.2640    7.8490 N.am  153  ASN153     -0.0877
    124  N        -74.4560  -42.9780    1.1890 N.3   156  ASN156     -0.1240
    125  CA       -74.0540  -44.3670    1.4380 C.3   156  ASN156      0.1653
    126  C        -75.0990  -45.2770    0.8970 C.2   156  ASN156      0.2266
    127  O        -74.7860  -46.3560    0.4160 O.2   156  ASN156     -0.2867
    128  CB       -73.8890  -44.6990    2.9080 C.3   156  ASN156      0.1155
    129  CG       -73.2660  -43.5910    3.6490 C.2   156  ASN156      0.2627
    130  OD1      -72.3650  -42.8940    3.1220 O.2   156  ASN156     -0.2716
    131  ND2      -73.7340  -43.3740    4.8880 N.am  156  ASN156     -0.0877
    132  N        -74.5280  -45.7670   -2.6440 N.3   159  VAL159     -0.1231
    133  CA       -73.3170  -46.5360   -2.7880 C.3   159  VAL159      0.1692
    134  C        -73.5720  -48.0000   -2.4190 C.2   159  VAL159      0.2592
    135  O        -73.2860  -48.9050   -3.1860 O.2   159  VAL159     -0.2718
    136  CB       -72.2590  -46.0190   -1.8550 C.3   159  VAL159      0.0266
    137  CG1      -71.2250  -47.1020   -1.6270 C.3   159  VAL159      0.0020
    138  CG2      -71.6680  -44.7650   -2.4190 C.3   159  VAL159      0.0020
    139  N        -74.1070  -48.2210   -1.2310 N.am  160  THR160     -0.1953
    140  CA       -74.3670  -49.5430   -0.7090 C.3   160  THR160      0.1897
    141  C        -75.4790  -50.3820   -1.3070 C.2   160  THR160      0.2313
    142  O        -75.4340  -51.5950   -1.2170 O.2   160  THR160     -0.2863
    143  CB       -74.6850  -49.4570    0.7700 C.3   160  THR160      0.1794
    144  OG1      -73.5700  -48.9030    1.4830 O.3   160  THR160     -0.2208
    145  CG2      -75.0150  -50.8130    1.3020 C.3   160  THR160      0.0378
@<TRIPOS>BOND
     1   135   134    2
     2   133   132    1
     3   133   134    1
     4   133   136    1
     5   134   139   am
     6   138   136    1
     7   136   137    1
     8   141   142    2
     9   141   140    1
    10   139   140    1
    11   140   143    1
    12   127   126    2
    13   143   145    1
    14   143   144    1
    15   126   125    1
    16   124   125    1
    17    15    14    1
    18    15    16    1
    19    14    11    1
    20   125   128    1
    21   110   109    1
    22    16    18   am
    23    16    17    2
    24    11    10    1
    25    11    12    1
    26   128   129    1
    27   119   118    2
    28   130   129    2
    29   109   107   ar
    30   109   108   ar
    31    12    13    2
    32   114   113    2
    33   107   105   ar
    34   118   117    1
    35    34    32    1
    36   129   131   am
    37   111   112    1
    38    32    31    1
    39   113   112    1
    40   113   116   am
    41   112   115    1
    42   108   106   ar
    43   105   104   ar
    44   117   116    1
    45   117   120    1
    46    31    33    1
    47    31    28    1
    48   106   104   ar
    49   104   103    1
    50   120   121    1
    51    26    24    1
    52   102   101    2
    53    28    27    1
    54    28    29    1
    55    27    21   am
    56     4     3    2
    57     9     7   ar
    58    23    24    1
    59    23    25    1
    60    23    20    1
    61    19    20    1
    62   121   122    2
    63   121   123   am
    64   103   100    1
    65   101   100    1
    66   100    99    1
    67    20    21    1
    68    29    30    2
    69     3     2    1
    70    21    22    2
    71     7     8   ar
    72     7     6    1
    73     2     1    1
    74     2     5    1
    75    53    51    1
    76     6     5    1
    77    52    51    1
    78    51    48    1
    79    98    96   ar
    80    93    92    2
    81    41    43   ar
    82    41    40   ar
    83    39    40    1
    84    39    36    1
    85    95    96    1
    86    95    94    1
    87    43    45   ar
    88    40    42   ar
    89    96    97   ar
    90    47    48    1
    91    47    37   am
    92    45    46    1
    93    45    44   ar
    94    48    49    1
    95    42    44   ar
    96    35    36    1
    97    92    91    1
    98    91    94    1
    99    91    90    1
   100    85    84    2
   101    36    37    1
   102    50    49    2
   103    37    38    2
   104    88    87    1
   105    87    89    1
   106    87    86    1
   107    84    90   am
   108    84    83    1
   109    65    64    1
   110    62    64   ar
   111    62    60   ar
   112    64    63   ar
   113    86    83    1
   114    83    82    1
   115    73    72    1
   116    60    59   ar
   117    63    61   ar
   118    72    71    1
   119    69    68    2
   120    59    61   ar
   121    59    58    1
   122    58    55    1
   123    77    76    2
   124    68    67    1
   125    68    74   am
   126    80    79    2
   127    70    71    1
   128    70    67    1
   129    81    79   am
   130    67    66    1
   131    76    75    1
   132    75    74    1
   133    75    78    1
   134    79    78    1
   135    54    55    1
   136    55    56    1
   137    56    57    2
