@<TRIPOS>MOLECULE
tmp/1qw4B02.pdb
 140 136 0 0 0
SMALL
GASTEIGER

@<TRIPOS>ATOM
      1  N        -57.4550  125.8650  -21.0140 N.3   118  CYS118     -0.1235
      2  CA       -57.2500  127.2630  -21.4010 C.3   118  CYS118      0.1677
      3  C        -57.9320  127.6760  -22.7020 C.2   118  CYS118      0.2270
      4  O        -57.5950  127.1900  -23.7780 O.2   118  CYS118     -0.2867
      5  CB       -55.7540  127.5700  -21.5240 C.3   118  CYS118      0.0956
      6  SG       -55.3870  129.2910  -21.9670 S.3   118  CYS118     -0.0801
      7  N        -52.5820  132.5360   -6.6170 N.3   181  GLN181     -0.1245
      8  CA       -52.3860  133.5340   -7.6640 C.3   181  GLN181      0.1566
      9  C        -51.4980  134.6200   -7.0900 C.2   181  GLN181      0.2260
     10  O        -51.5580  134.8940   -5.8870 O.2   181  GLN181     -0.2867
     11  CB       -53.7110  134.1750   -8.0780 C.3   181  GLN181      0.0367
     12  CG       -54.6710  133.2640   -8.7920 C.3   181  GLN181      0.0905
     13  CD       -55.9980  133.9310   -9.0530 C.2   181  GLN181      0.2608
     14  OE1      -56.0810  134.9180   -9.7820 O.2   181  GLN181     -0.2717
     15  NE2      -57.0500  133.4000   -8.4430 N.am  181  GLN181     -0.0878
     16  N        -54.2510  138.3650   -5.0470 N.3   184  ARG184     -0.1245
     17  CA       -55.5380  137.8270   -4.6820 C.3   184  ARG184      0.1563
     18  C        -56.0120  138.4150   -3.3590 C.2   184  ARG184      0.2260
     19  O        -55.1970  138.8560   -2.5510 O.2   184  ARG184     -0.2867
     20  CB       -55.4420  136.3150   -4.6210 C.3   184  ARG184      0.0307
     21  CG       -56.7760  135.6790   -4.4590 C.3   184  ARG184      0.0489
     22  CD       -56.7930  134.3060   -5.0530 C.3   184  ARG184      0.2205
     23  NE       -58.0990  133.7130   -4.8300 N.pl3 184  ARG184     -0.0865
     24  CZ       -58.4470  132.5130   -5.2530 C.cat 184  ARG184      0.5346
     25  NH1      -57.5750  131.7780   -5.9290 N.pl3 184  ARG184      0.1354
     26  NH2      -59.6630  132.0550   -4.9950 N.pl3 184  ARG184      0.1354
     27  N        -58.7850  143.0190   -9.1580 N.3   265  TYR265     -0.1241
     28  CA       -57.4730  143.2290   -9.7470 C.3   265  TYR265      0.1605
     29  C        -57.4710  142.9230  -11.2500 C.2   265  TYR265      0.2264
     30  O        -58.1930  142.0430  -11.7370 O.2   265  TYR265     -0.2867
     31  CB       -56.4020  142.3860   -9.0340 C.3   265  TYR265      0.0534
     32  CG       -56.7970  140.9610   -8.7420 C.ar  265  TYR265     -0.0201
     33  CD1      -57.4720  140.6330   -7.5620 C.ar  265  TYR265     -0.0009
     34  CD2      -56.4880  139.9330   -9.6340 C.ar  265  TYR265     -0.0009
     35  CE1      -57.8280  139.3100   -7.2720 C.ar  265  TYR265      0.0417
     36  CE2      -56.8390  138.6070   -9.3550 C.ar  265  TYR265      0.0417
     37  CZ       -57.5070  138.3060   -8.1720 C.ar  265  TYR265      0.1957
     38  OH       -57.8560  137.0070   -7.8850 O.3   265  TYR265     -0.2866
     39  N        -54.5220  138.4410  -13.7670 N.3   268  PRO268     -0.2116
     40  CA       -54.8050  137.0650  -13.3390 C.3   268  PRO268      0.1372
     41  C        -53.4880  136.3050  -13.5270 C.2   268  PRO268      0.2244
     42  O        -53.0410  136.0940  -14.6590 O.2   268  PRO268     -0.2868
     43  CB       -55.8860  136.6240  -14.3180 C.3   268  PRO268      0.0268
     44  CG       -55.4510  137.2950  -15.6060 C.3   268  PRO268      0.0207
     45  CD       -55.0220  138.6820  -15.1410 C.3   268  PRO268      0.0892
     46  N        -51.5490  132.8220  -12.2770 N.3   270  VAL270     -0.1245
     47  CA       -51.5070  131.5450  -11.5780 C.3   270  VAL270      0.1561
     48  C        -50.1090  131.3860  -11.0130 C.2   270  VAL270      0.2260
     49  O        -49.1170  131.4680  -11.7450 O.2   270  VAL270     -0.2867
     50  CB       -51.8250  130.3780  -12.5280 C.3   270  VAL270      0.0252
     51  CG1      -51.6220  129.0620  -11.8180 C.3   270  VAL270      0.0019
     52  CG2      -53.2620  130.4860  -13.0060 C.3   270  VAL270      0.0019
     53  N        -47.1860  132.4680  -13.9700 N.3   287  PHE287     -0.1227
     54  CA       -47.5070  132.9120  -15.3240 C.3   287  PHE287      0.1736
     55  C        -48.8360  133.6740  -15.3210 C.2   287  PHE287      0.2595
     56  O        -49.6400  133.5570  -14.3820 O.2   287  PHE287     -0.2718
     57  CB       -47.5330  131.7340  -16.3320 C.3   287  PHE287      0.0547
     58  CG       -48.5060  130.6230  -15.9880 C.ar  287  PHE287     -0.0202
     59  CD1      -49.8840  130.8060  -16.1070 C.ar  287  PHE287     -0.0042
     60  CD2      -48.0310  129.3780  -15.5670 C.ar  287  PHE287     -0.0042
     61  CE1      -50.7710  129.7690  -15.8110 C.ar  287  PHE287     -0.0003
     62  CE2      -48.9070  128.3350  -15.2690 C.ar  287  PHE287     -0.0003
     63  CZ       -50.2760  128.5320  -15.3930 C.ar  287  PHE287     -0.0000
     64  N        -49.0550  134.4780  -16.3580 N.am  288  ASN288     -0.1960
     65  CA       -50.2820  135.2540  -16.4380 C.3   288  ASN288      0.1819
     66  C        -50.6490  135.5940  -17.8690 C.2   288  ASN288      0.2622
     67  O        -49.8230  135.5370  -18.7830 O.2   288  ASN288     -0.2715
     68  CB       -50.1330  136.5810  -15.7040 C.3   288  ASN288      0.1195
     69  CG       -49.3430  137.5930  -16.5170 C.2   288  ASN288      0.2630
     70  OD1      -48.1180  137.5950  -16.5020 O.2   288  ASN288     -0.2716
     71  ND2      -50.0500  138.4390  -17.2590 N.am  288  ASN288     -0.0877
     72  N        -51.9050  135.9880  -18.0270 N.am  289  GLY289     -0.1940
     73  CA       -52.4310  136.4120  -19.3070 C.3   289  GLY289      0.2014
     74  C        -53.3970  137.5050  -18.9000 C.2   289  GLY289      0.2639
     75  O        -53.1200  138.2560  -17.9620 O.2   289  GLY289     -0.2714
     76  N        -54.5240  137.6140  -19.5880 N.am  290  TRP290     -0.1959
     77  CA       -55.5030  138.6070  -19.2070 C.3   290  TRP290      0.1771
     78  C        -56.8370  137.9400  -18.9250 C.2   290  TRP290      0.2619
     79  O        -57.0630  136.7840  -19.2880 O.2   290  TRP290     -0.2715
     80  CB       -55.6230  139.7160  -20.2650 C.3   290  TRP290      0.0590
     81  CG       -55.8260  139.2770  -21.6690 C.ar  290  TRP290      0.0006
     82  CD1      -56.9970  138.8680  -22.2480 C.ar  290  TRP290      0.0946
     83  CD2      -54.8350  139.2380  -22.6980 C.ar  290  TRP290      0.0152
     84  NE1      -56.7950  138.5820  -23.5820 N.ar  290  TRP290     -0.2442
     85  CE2      -55.4760  138.8010  -23.8830 C.ar  290  TRP290      0.0810
     86  CE3      -53.4650  139.5270  -22.7370 C.ar  290  TRP290      0.0012
     87  CZ2      -54.7890  138.6480  -25.1000 C.ar  290  TRP290      0.0191
     88  CZ3      -52.7770  139.3720  -23.9520 C.ar  290  TRP290      0.0001
     89  CH2      -53.4450  138.9360  -25.1140 C.ar  290  TRP290      0.0015
     90  N        -57.7060  138.6730  -18.2430 N.am  291  TYR291     -0.1974
     91  CA       -59.0170  138.1790  -17.8470 C.3   291  TYR291      0.1639
     92  C        -60.0560  137.9880  -18.9450 C.2   291  TYR291      0.2290
     93  O        -60.0220  138.6240  -20.0010 O.2   291  TYR291     -0.2864
     94  CB       -59.6270  139.1190  -16.7890 C.3   291  TYR291      0.0560
     95  CG       -59.3850  138.7060  -15.3520 C.ar  291  TYR291     -0.0198
     96  CD1      -59.8910  137.5000  -14.8630 C.ar  291  TYR291     -0.0009
     97  CD2      -58.6470  139.5220  -14.4770 C.ar  291  TYR291     -0.0009
     98  CE1      -59.6700  137.1100  -13.5440 C.ar  291  TYR291      0.0417
     99  CE2      -58.4160  139.1400  -13.1400 C.ar  291  TYR291      0.0417
    100  CZ       -58.9330  137.9290  -12.6860 C.ar  291  TYR291      0.1957
    101  OH       -58.7120  137.5210  -11.3770 O.3   291  TYR291     -0.2866
    102  N        -64.9680  135.4260  -15.6230 N.3   295  GLU295     -0.1245
    103  CA       -64.1800  134.9630  -14.4810 C.3   295  GLU295      0.1567
    104  C        -64.5280  135.8120  -13.2610 C.2   295  GLU295      0.2260
    105  O        -64.7320  135.2930  -12.1610 O.2   295  GLU295     -0.2867
    106  CB       -62.6850  135.0590  -14.7760 C.3   295  GLU295      0.0388
    107  CG       -62.2650  134.4220  -16.0820 C.3   295  GLU295      0.1160
    108  CD       -60.7630  134.1880  -16.1560 C.2   295  GLU295      0.3649
    109  OE1      -60.2640  133.3730  -15.3520 O.co2 295  GLU295     -0.2457
    110  OE2      -60.0750  134.8140  -17.0010 O.co2 295  GLU295     -0.2457
    111  N        -68.1930  134.0200  -11.9500 N.3   299  ARG299     -0.1231
    112  CA       -67.5970  133.2210  -10.8870 C.3   299  ARG299      0.1694
    113  C        -67.1640  133.9500   -9.6040 C.2   299  ARG299      0.2592
    114  O        -67.6670  133.6440   -8.5160 O.2   299  ARG299     -0.2718
    115  CB       -66.4210  132.4190  -11.4590 C.3   299  ARG299      0.0321
    116  CG       -66.7700  131.5930  -12.7030 C.3   299  ARG299      0.0489
    117  CD       -67.8960  130.6120  -12.4300 C.3   299  ARG299      0.2205
    118  NE       -67.6520  129.8110  -11.2330 N.pl3 299  ARG299     -0.0865
    119  CZ       -66.8330  128.7640  -11.1680 C.cat 299  ARG299      0.5346
    120  NH1      -66.1630  128.3670  -12.2410 N.pl3 299  ARG299      0.1354
    121  NH2      -66.6760  128.1110  -10.0230 N.pl3 299  ARG299      0.1354
    122  N        -66.2490  134.9090   -9.7100 N.am  300  ASP300     -0.1974
    123  CA       -65.7760  135.6190   -8.5190 C.3   300  ASP300      0.1709
    124  C        -66.8720  136.3890   -7.7620 C.2   300  ASP300      0.2293
    125  O        -66.9190  136.3650   -6.5290 O.2   300  ASP300     -0.2864
    126  CB       -64.6400  136.5660   -8.9040 C.3   300  ASP300      0.1436
    127  CG       -63.4770  135.8430   -9.5600 C.2   300  ASP300      0.3671
    128  OD1      -63.1900  134.6870   -9.1800 O.co2 300  ASP300     -0.2456
    129  OD2      -62.8430  136.4440  -10.4520 O.co2 300  ASP300     -0.2456
    130  N        -68.0590  132.3260   -3.3440 N.3   306  ARG306     -0.1245
    131  CA       -67.1770  133.4760   -3.5420 C.3   306  ARG306      0.1563
    132  C        -67.8280  134.7470   -2.9870 C.2   306  ARG306      0.2260
    133  O        -68.1910  134.7820   -1.8090 O.2   306  ARG306     -0.2867
    134  CB       -66.8250  133.6390   -5.0260 C.3   306  ARG306      0.0307
    135  CG       -66.0840  132.4340   -5.6140 C.3   306  ARG306      0.0489
    136  CD       -64.7920  132.1100   -4.8710 C.3   306  ARG306      0.2205
    137  NE       -63.7520  133.1190   -5.0720 N.pl3 306  ARG306     -0.0865
    138  CZ       -63.1940  133.4030   -6.2470 C.cat 306  ARG306      0.5346
    139  NH1      -63.5660  132.7550   -7.3430 N.pl3 306  ARG306      0.1354
    140  NH2      -62.2690  134.3470   -6.3320 N.pl3 306  ARG306      0.1354
@<TRIPOS>BOND
     1    89    87   ar
     2    89    88   ar
     3    87    85   ar
     4    88    86   ar
     5    85    84   ar
     6    85    83   ar
     7     4     3    2
     8    84    82   ar
     9    86    83   ar
    10     3     2    1
    11    83    81   ar
    12    82    81   ar
    13     6     5    1
    14    81    80    1
    15     5     2    1
    16     2     1    1
    17    80    77    1
    18    93    92    2
    19    76    77    1
    20    76    74   am
    21    73    74    1
    22    73    72    1
    23    79    78    2
    24    77    78    1
    25    92    91    1
    26    78    90   am
    27    74    75    2
    28    67    66    2
    29    90    91    1
    30    72    66   am
    31    66    65    1
    32    91    94    1
    33    71    69   am
    34   110   108   ar
    35    94    95    1
    36    69    70    2
    37    69    68    1
    38    65    64    1
    39    65    68    1
    40    64    55   am
    41    57    58    1
    42    57    54    1
    43   108   107    1
    44   108   109   ar
    45    59    58   ar
    46    59    61   ar
    47   107   106    1
    48    58    60   ar
    49    61    63   ar
    50   102   103    1
    51    44    45    1
    52    44    43    1
    53    60    62   ar
    54    63    62   ar
    55    95    96   ar
    56    95    97   ar
    57    54    55    1
    58    54    53    1
    59    55    56    2
    60    45    39    1
    61    96    98   ar
    62   106   103    1
    63    42    41    2
    64   103   104    1
    65    97    99   ar
    66    43    40    1
    67    39    40    1
    68    98   100   ar
    69    41    40    1
    70   104   105    2
    71    99   100   ar
    72    52    50    1
    73   116   117    1
    74   116   115    1
    75   100   101    1
    76    50    51    1
    77    50    47    1
    78   117   118    1
    79    46    47    1
    80   120   119    1
    81   111   112    1
    82    49    48    2
    83    30    29    2
    84    47    48    1
    85   115   112    1
    86    29    28    1
    87   118   119    2
    88   119   121    1
    89   112   113    1
    90   129   127   ar
    91    14    13    2
    92    28    27    1
    93    28    31    1
    94   122   113   am
    95   122   123    1
    96    34    36   ar
    97    34    32   ar
    98   113   114    2
    99   127   128   ar
   100   127   126    1
   101    36    37   ar
   102    13    12    1
   103    13    15   am
   104    31    32    1
   105   126   123    1
   106    12    11    1
   107    32    33   ar
   108   123   124    1
   109    37    38    1
   110    37    35   ar
   111    11     8    1
   112   124   125    2
   113     8     9    1
   114     8     7    1
   115    33    35   ar
   116   139   138    1
   117     9    10    2
   118   140   138    1
   119   138   137    2
   120    25    24    1
   121   135   134    1
   122   135   136    1
   123    24    26    1
   124    24    23    2
   125   137   136    1
   126    22    23    1
   127    22    21    1
   128    16    17    1
   129   134   131    1
   130    17    20    1
   131    17    18    1
   132    20    21    1
   133   131   130    1
   134   131   132    1
   135    18    19    2
   136   132   133    2
