@<TRIPOS>MOLECULE
tmp/1qw5B02.pdb
 132 133 0 0 0
SMALL
GASTEIGER

@<TRIPOS>ATOM
      1  N        -57.4200  125.8220  -20.9410 N.3   118  CYS118     -0.1235
      2  CA       -57.2450  127.2350  -21.3070 C.3   118  CYS118      0.1677
      3  C        -57.9280  127.6080  -22.6230 C.2   118  CYS118      0.2270
      4  O        -57.5680  127.1050  -23.6810 O.2   118  CYS118     -0.2867
      5  CB       -55.7570  127.5800  -21.4200 C.3   118  CYS118      0.0956
      6  SG       -55.4140  129.3340  -21.7630 S.3   118  CYS118     -0.0801
      7  N        -52.0660  130.9420   -4.4990 N.3   180  SER180     -0.1202
      8  CA       -52.7260  130.2720   -5.6040 C.3   180  SER180      0.2020
      9  C        -52.5850  131.1670   -6.8340 C.2   180  SER180      0.2618
     10  O        -52.5170  130.6830   -7.9660 O.2   180  SER180     -0.2717
     11  CB       -54.1940  130.0470   -5.2610 C.3   180  SER180      0.2103
     12  OG       -54.7980  131.2460   -4.8190 O.3   180  SER180     -0.2182
     13  N        -52.5350  132.4750   -6.5870 N.am  181  GLN181     -0.1979
     14  CA       -52.3860  133.4890   -7.6310 C.3   181  GLN181      0.1601
     15  C        -51.4980  134.6070   -7.0930 C.2   181  GLN181      0.2287
     16  O        -51.5280  134.8950   -5.8960 O.2   181  GLN181     -0.2864
     17  CB       -53.7410  134.0980   -7.9970 C.3   181  GLN181      0.0394
     18  CG       -54.7300  133.1570   -8.6440 C.3   181  GLN181      0.0908
     19  CD       -56.1420  133.7110   -8.6290 C.2   181  GLN181      0.2608
     20  OE1      -56.3880  134.8430   -9.0560 O.2   181  GLN181     -0.2717
     21  NE2      -57.0830  132.9090   -8.1400 N.am  181  GLN181     -0.0878
     22  N        -54.5270  138.3890  -13.9210 N.3   268  PRO268     -0.2102
     23  CA       -54.8790  137.0350  -13.4980 C.3   268  PRO268      0.1504
     24  C        -53.5750  136.2580  -13.6820 C.2   268  PRO268      0.2576
     25  O        -53.1320  136.0210  -14.8090 O.2   268  PRO268     -0.2718
     26  CB       -55.9690  136.6470  -14.4870 C.3   268  PRO268      0.0282
     27  CG       -55.4950  137.2730  -15.7430 C.3   268  PRO268      0.0208
     28  CD       -55.0000  138.6420  -15.2970 C.3   268  PRO268      0.0893
     29  N        -52.9310  135.9070  -12.5750 N.am  269  ALA269     -0.1966
     30  CA       -51.6640  135.1970  -12.6390 C.3   269  ALA269      0.1728
     31  C        -51.6460  133.9610  -11.7490 C.2   269  ALA269      0.2616
     32  O        -51.6870  134.0710  -10.5240 O.2   269  ALA269     -0.2715
     33  CB       -50.5270  136.1430  -12.2440 C.3   269  ALA269      0.0334
     34  N        -51.5950  132.7860  -12.3670 N.am  270  VAL270     -0.1977
     35  CA       -51.5680  131.5310  -11.6250 C.3   270  VAL270      0.1596
     36  C        -50.1900  131.4410  -10.9780 C.2   270  VAL270      0.2287
     37  O        -49.1720  131.6930  -11.6360 O.2   270  VAL270     -0.2864
     38  CB       -51.7940  130.3380  -12.5640 C.3   270  VAL270      0.0276
     39  CG1      -51.6900  129.0540  -11.7940 C.3   270  VAL270      0.0022
     40  CG2      -53.1530  130.4500  -13.2150 C.3   270  VAL270      0.0022
     41  N        -47.2480  132.4130  -14.0210 N.3   287  PHE287     -0.1227
     42  CA       -47.5570  132.8380  -15.3860 C.3   287  PHE287      0.1736
     43  C        -48.8690  133.6190  -15.3560 C.2   287  PHE287      0.2595
     44  O        -49.6480  133.5080  -14.4010 O.2   287  PHE287     -0.2718
     45  CB       -47.6580  131.6330  -16.3450 C.3   287  PHE287      0.0547
     46  CG       -48.7340  130.6300  -15.9840 C.ar  287  PHE287     -0.0202
     47  CD1      -50.0750  130.8950  -16.2400 C.ar  287  PHE287     -0.0042
     48  CD2      -48.3950  129.4070  -15.4140 C.ar  287  PHE287     -0.0042
     49  CE1      -51.0540  129.9590  -15.9380 C.ar  287  PHE287     -0.0003
     50  CE2      -49.3630  128.4680  -15.1100 C.ar  287  PHE287     -0.0003
     51  CZ       -50.6950  128.7420  -15.3730 C.ar  287  PHE287     -0.0000
     52  N        -49.1040  134.4220  -16.3890 N.am  288  ASN288     -0.1960
     53  CA       -50.3160  135.2180  -16.4560 C.3   288  ASN288      0.1819
     54  C        -50.6840  135.5420  -17.8900 C.2   288  ASN288      0.2622
     55  O        -49.8640  135.4420  -18.8070 O.2   288  ASN288     -0.2715
     56  CB       -50.1340  136.5460  -15.7330 C.3   288  ASN288      0.1195
     57  CG       -49.3040  137.5240  -16.5390 C.2   288  ASN288      0.2630
     58  OD1      -48.0760  137.5150  -16.4790 O.2   288  ASN288     -0.2716
     59  ND2      -49.9720  138.3570  -17.3220 N.am  288  ASN288     -0.0877
     60  N        -51.9380  135.9430  -18.0570 N.am  289  GLY289     -0.1940
     61  CA       -52.4540  136.3500  -19.3480 C.3   289  GLY289      0.2014
     62  C        -53.3890  137.4820  -18.9780 C.2   289  GLY289      0.2639
     63  O        -53.0970  138.2450  -18.0530 O.2   289  GLY289     -0.2714
     64  N        -54.5020  137.6200  -19.6820 N.am  290  TRP290     -0.1959
     65  CA       -55.4580  138.6520  -19.3240 C.3   290  TRP290      0.1771
     66  C        -56.7890  137.9750  -19.0530 C.2   290  TRP290      0.2620
     67  O        -56.9890  136.8190  -19.4050 O.2   290  TRP290     -0.2715
     68  CB       -55.5760  139.7190  -20.4160 C.3   290  TRP290      0.0590
     69  CG       -55.8340  139.1940  -21.7780 C.ar  290  TRP290      0.0006
     70  CD1      -57.0010  138.6610  -22.2550 C.ar  290  TRP290      0.0946
     71  CD2      -54.9010  139.1460  -22.8510 C.ar  290  TRP290      0.0152
     72  NE1      -56.8480  138.2850  -23.5610 N.ar  290  TRP290     -0.2442
     73  CE2      -55.5660  138.5710  -23.9540 C.ar  290  TRP290      0.0810
     74  CE3      -53.5640  139.5320  -22.9890 C.ar  290  TRP290      0.0012
     75  CZ2      -54.9350  138.3740  -25.1870 C.ar  290  TRP290      0.0191
     76  CZ3      -52.9390  139.3370  -24.2110 C.ar  290  TRP290      0.0001
     77  CH2      -53.6250  138.7610  -25.2950 C.ar  290  TRP290      0.0015
     78  N        -57.6910  138.7010  -18.4130 N.am  291  TYR291     -0.1960
     79  CA       -58.9870  138.1700  -18.0360 C.3   291  TYR291      0.1771
     80  C        -60.0340  137.9370  -19.1250 C.2   291  TYR291      0.2619
     81  O        -59.9960  138.5100  -20.2170 O.2   291  TYR291     -0.2715
     82  CB       -59.6070  139.0800  -16.9650 C.3   291  TYR291      0.0574
     83  CG       -59.3320  138.6770  -15.5340 C.ar  291  TYR291     -0.0198
     84  CD1      -59.7590  137.4440  -15.0480 C.ar  291  TYR291     -0.0009
     85  CD2      -58.6540  139.5350  -14.6580 C.ar  291  TYR291     -0.0009
     86  CE1      -59.5200  137.0650  -13.7280 C.ar  291  TYR291      0.0417
     87  CE2      -58.4070  139.1660  -13.3140 C.ar  291  TYR291      0.0417
     88  CZ       -58.8430  137.9250  -12.8640 C.ar  291  TYR291      0.1957
     89  OH       -58.5790  137.5140  -11.5690 O.3   291  TYR291     -0.2866
     90  N        -60.9620  137.0490  -18.7940 N.am  292  MET292     -0.1977
     91  CA       -62.1020  136.7660  -19.6330 C.3   292  MET292      0.1605
     92  C        -63.2240  137.1930  -18.6920 C.2   292  MET292      0.2287
     93  O        -63.3780  136.6360  -17.5970 O.2   292  MET292     -0.2864
     94  CB       -62.2320  135.2840  -19.9660 C.3   292  MET292      0.0413
     95  CG       -63.4520  135.0490  -20.8360 C.3   292  MET292      0.0598
     96  SD       -63.5370  133.5180  -21.7470 S.3   292  MET292     -0.1393
     97  CE       -64.2910  132.5320  -20.5390 C.3   292  MET292      0.0692
     98  N        -64.8160  135.2950  -15.7490 N.3   295  GLU295     -0.1245
     99  CA       -64.0170  134.8480  -14.6040 C.3   295  GLU295      0.1567
    100  C        -64.3380  135.7290  -13.3940 C.2   295  GLU295      0.2260
    101  O        -64.5070  135.2460  -12.2740 O.2   295  GLU295     -0.2867
    102  CB       -62.5130  134.9350  -14.9070 C.3   295  GLU295      0.0388
    103  CG       -62.0110  134.0670  -16.0570 C.3   295  GLU295      0.1160
    104  CD       -60.4860  134.0240  -16.1240 C.2   295  GLU295      0.3649
    105  OE1      -59.8650  133.3800  -15.2510 O.co2 295  GLU295     -0.2457
    106  OE2      -59.9030  134.6390  -17.0440 O.co2 295  GLU295     -0.2457
    107  N        -64.2450  122.8630  -19.0540 N.3   381  TRP381     -0.1241
    108  CA       -63.6190  124.0910  -18.5930 C.3   381  TRP381      0.1605
    109  C        -63.6760  125.1640  -19.6720 C.2   381  TRP381      0.2264
    110  O        -63.7920  126.3530  -19.3720 O.2   381  TRP381     -0.2867
    111  CB       -62.1580  123.8430  -18.2110 C.3   381  TRP381      0.0550
    112  CG       -61.9810  123.4620  -16.7880 C.ar  381  TRP381      0.0003
    113  CD1      -62.4930  122.3500  -16.1670 C.ar  381  TRP381      0.0946
    114  CD2      -61.2570  124.1900  -15.7760 C.ar  381  TRP381      0.0152
    115  NE1      -62.1300  122.3440  -14.8300 N.ar  381  TRP381     -0.2442
    116  CE2      -61.3750  123.4590  -14.5670 C.ar  381  TRP381      0.0810
    117  CE3      -60.5240  125.3860  -15.7730 C.ar  381  TRP381      0.0012
    118  CZ2      -60.7890  123.8860  -13.3710 C.ar  381  TRP381      0.0191
    119  CZ3      -59.9400  125.8120  -14.5810 C.ar  381  TRP381      0.0001
    120  CH2      -60.0780  125.0610  -13.3960 C.ar  381  TRP381      0.0015
    121  N        -50.8890  120.4110  -11.5460 N.3   409  TYR409     -0.1241
    122  CA       -51.2990  120.9980  -10.2760 C.3   409  TYR409      0.1605
    123  C        -50.3210  120.4120   -9.2600 C.2   409  TYR409      0.2264
    124  O        -49.5320  119.5330   -9.6050 O.2   409  TYR409     -0.2867
    125  CB       -52.7140  120.5560   -9.9050 C.3   409  TYR409      0.0534
    126  CG       -53.8350  121.1400  -10.7380 C.ar  409  TYR409     -0.0201
    127  CD1      -54.0540  122.5180  -10.7930 C.ar  409  TYR409     -0.0009
    128  CD2      -54.7100  120.3090  -11.4320 C.ar  409  TYR409     -0.0009
    129  CE1      -55.1170  123.0490  -11.5170 C.ar  409  TYR409      0.0417
    130  CE2      -55.7750  120.8310  -12.1560 C.ar  409  TYR409      0.0417
    131  CZ       -55.9720  122.1990  -12.1940 C.ar  409  TYR409      0.1957
    132  OH       -57.0310  122.7040  -12.8990 O.3   409  TYR409     -0.2866
@<TRIPOS>BOND
     1    77    75   ar
     2    77    76   ar
     3    75    73   ar
     4    76    74   ar
     5    73    72   ar
     6    73    71   ar
     7     4     3    2
     8    72    70   ar
     9    74    71   ar
    10    71    69   ar
    11     3     2    1
    12    70    69   ar
    13    69    68    1
    14     6     5    1
    15    96    95    1
    16    96    97    1
    17     5     2    1
    18     2     1    1
    19    95    94    1
    20    68    65    1
    21    81    80    2
    22    94    91    1
    23    64    65    1
    24    64    62   am
    25   109   110    2
    26   109   108    1
    27    91    90    1
    28    91    92    1
    29    67    66    2
    30    61    62    1
    31    61    60    1
    32    65    66    1
    33    80    90   am
    34    80    79    1
    35   107   108    1
    36    66    78   am
    37    62    63    2
    38    55    54    2
    39    92    93    2
    40   108   111    1
    41    78    79    1
    42   111   112    1
    43    60    54   am
    44    79    82    1
    45    54    53    1
    46    59    57   am
    47   106   104   ar
    48    82    83    1
    49   112   113   ar
    50   112   114   ar
    51    57    58    2
    52    57    56    1
    53    53    52    1
    54    53    56    1
    55    52    43   am
    56    45    46    1
    57    45    42    1
    58    47    46   ar
    59    47    49   ar
    60   113   115   ar
    61   104   103    1
    62   104   105   ar
    63   103   102    1
    64    46    48   ar
    65    49    51   ar
    66   114   117   ar
    67   114   116   ar
    68   117   119   ar
    69    98    99    1
    70    27    28    1
    71    27    26    1
    72    83    84   ar
    73    83    85   ar
    74    48    50   ar
    75    42    43    1
    76    42    41    1
    77    51    50   ar
    78    43    44    2
    79    28    22    1
    80    84    86   ar
    81   102    99    1
    82   115   116   ar
    83    25    24    2
    84    85    87   ar
    85    99   100    1
    86   119   120   ar
    87   116   118   ar
    88    26    23    1
    89    22    23    1
    90    86    88   ar
    91    24    23    1
    92    24    29   am
    93   120   118   ar
    94   100   101    2
    95    87    88   ar
    96    40    38    1
    97   132   131    1
    98    88    89    1
    99    30    29    1
   100    30    33    1
   101    30    31    1
   102    38    39    1
   103    38    35    1
   104    34    31   am
   105    34    35    1
   106   131   130   ar
   107   131   129   ar
   108   130   128   ar
   109    31    32    2
   110    37    36    2
   111    35    36    1
   112   121   122    1
   113   129   127   ar
   114   128   126   ar
   115   127   126   ar
   116   126   125    1
   117   122   125    1
   118   122   123    1
   119   124   123    2
   120    20    19    2
   121    18    19    1
   122    18    17    1
   123    19    21   am
   124    17    14    1
   125    10     9    2
   126    14    15    1
   127    14    13    1
   128    15    16    2
   129     9    13   am
   130     9     8    1
   131     8    11    1
   132     8     7    1
   133    11    12    1
