@<TRIPOS>MOLECULE
tmp/1qw7B00.pdb
 86 80 0 0 0
SMALL
GASTEIGER

@<TRIPOS>ATOM
      1  N         32.6320   10.0000    3.3690 N.3    21  GLY21      -0.1210
      2  CA        32.4020   10.2150    1.9660 C.3    21  GLY21       0.1956
      3  C         31.0520    9.6780    1.5450 C.2    21  GLY21       0.2611
      4  O         30.1070    9.6890    2.3350 O.2    21  GLY21      -0.2717
      5  N         30.9710    9.2420    0.2910 N.am   22  PHE22      -0.1976
      6  CA        29.7550    8.6780   -0.3100 C.3    22  PHE22       0.1639
      7  C         29.3770    7.4290    0.5070 C.2    22  PHE22       0.2290
      8  O         30.1150    6.4590    0.5280 O.2    22  PHE22      -0.2864
      9  CB        30.0650    8.3030   -1.7590 C.3    22  PHE22       0.0560
     10  CG        28.8900    7.7540   -2.5400 C.ar   22  PHE22      -0.0200
     11  CD1       27.6180    7.6610   -1.9870 C.ar   22  PHE22      -0.0042
     12  CD2       29.0670    7.3410   -3.8670 C.ar   22  PHE22      -0.0042
     13  CE1       26.5360    7.1690   -2.7450 C.ar   22  PHE22      -0.0003
     14  CE2       27.9850    6.8500   -4.6290 C.ar   22  PHE22      -0.0003
     15  CZ        26.7200    6.7700   -4.0560 C.ar   22  PHE22      -0.0000
     16  N         32.6580    2.7690   -8.2210 N.3    64  ALA64      -0.1231
     17  CA        31.6640    3.7630   -8.6020 C.3    64  ALA64       0.1694
     18  C         31.6050    4.9180   -7.5910 C.2    64  ALA64       0.2592
     19  O         30.7240    5.7720   -7.6670 O.2    64  ALA64      -0.2718
     20  CB        30.2990    3.1310   -8.7740 C.3    64  ALA64       0.0304
     21  N         32.5510    4.9350   -6.6490 N.am   65  GLY65      -0.1957
     22  CA        32.5920    6.0080   -5.6650 C.3    65  GLY65       0.1869
     23  C         32.0560    5.7790   -4.2570 C.2    65  GLY65       0.2309
     24  O         32.0990    6.7010   -3.4200 O.2    65  GLY65      -0.2863
     25  N         32.3440    4.9110   -0.6510 N.3    67  ARG67      -0.1245
     26  CA        33.4890    4.7630    0.2390 C.3    67  ARG67       0.1563
     27  C         33.0900    4.0950    1.5530 C.2    67  ARG67       0.2260
     28  O         33.9310    3.5530    2.2650 O.2    67  ARG67      -0.2867
     29  CB        34.1110    6.1410    0.5230 C.3    67  ARG67       0.0307
     30  CG        34.7560    6.7720   -0.7150 C.3    67  ARG67       0.0489
     31  CD        36.1770    7.2700   -0.4500 C.3    67  ARG67       0.2205
     32  NE        36.9910    6.2900    0.2750 N.pl3  67  ARG67      -0.0865
     33  CZ        38.2440    6.5020    0.6720 C.cat  67  ARG67       0.5346
     34  NH1       38.8280    7.6630    0.4070 N.pl3  67  ARG67       0.1354
     35  NH2       38.9070    5.5690    1.3500 N.pl3  67  ARG67       0.1354
     36  N         24.8390    4.3880   -7.4350 N.3   299  PRO299     -0.2116
     37  CA        25.6680    5.2850   -8.2500 C.3   299  PRO299      0.1372
     38  C         25.5930    5.0980   -9.7610 C.2   299  PRO299      0.2244
     39  O         25.6210    6.0780  -10.5140 O.2   299  PRO299     -0.2868
     40  CB        27.1020    5.0480   -7.7210 C.3   299  PRO299      0.0268
     41  CG        27.0330    3.6490   -7.1000 C.3   299  PRO299      0.0207
     42  CD        25.6620    3.6370   -6.4680 C.3   299  PRO299      0.0892
     43  N         21.6390    7.5940   -9.5030 N.3   303  ILE303     -0.1245
     44  CA        22.1430    8.9580   -9.5380 C.3   303  ILE303      0.1561
     45  C         21.9880    9.5400  -10.9430 C.2   303  ILE303      0.2260
     46  O         21.5210   10.6730  -11.1030 O.2   303  ILE303     -0.2867
     47  CB        23.6540    9.0380   -9.1060 C.3   303  ILE303      0.0252
     48  CG1       23.8310    8.5870   -7.6430 C.3   303  ILE303      0.0019
     49  CG2       24.1970   10.4340   -9.3340 C.3   303  ILE303      0.0019
     50  CD1       22.8840    9.2060   -6.6240 C.3   303  ILE303      0.0001
     51  N         23.1380   18.0790   -9.7770 N.3   313  GLN313     -0.1245
     52  CA        24.1870   17.2100   -9.2870 C.3   313  GLN313      0.1566
     53  C         24.5800   17.5820   -7.8530 C.2   313  GLN313      0.2260
     54  O         24.8970   16.7140   -7.0550 O.2   313  GLN313     -0.2867
     55  CB        25.4020   17.3010  -10.2080 C.3   313  GLN313      0.0367
     56  CG        26.4860   16.2610   -9.9120 C.3   313  GLN313      0.0905
     57  CD        26.1180   14.8310  -10.3270 C.2   313  GLN313      0.2608
     58  OE1       26.8060   13.8790   -9.9510 O.2   313  GLN313     -0.2717
     59  NE2       25.0500   14.6780  -11.1130 N.am  313  GLN313     -0.0878
     60  N         22.3670   15.8290   -5.4360 N.3   316  LEU316     -0.1231
     61  CA        22.6330   14.4030   -5.2700 C.3   316  LEU316      0.1693
     62  C         23.8590   14.2150   -4.3640 C.2   316  LEU316      0.2591
     63  O         23.9110   13.2570   -3.6040 O.2   316  LEU316     -0.2718
     64  CB        22.8450   13.7340   -6.6350 C.3   316  LEU316      0.0284
     65  CG        21.5830   13.8210   -7.4980 C.3   316  LEU316      0.0019
     66  CD1       21.8470   13.3360   -8.9230 C.3   316  LEU316      0.0001
     67  CD2       20.5090   12.9800   -6.8610 C.3   316  LEU316      0.0001
     68  N         24.8220   15.1380   -4.4350 N.am  317  ALA317     -0.1980
     69  CA        26.0080   15.0330   -3.5900 C.3   317  ALA317      0.1597
     70  C         25.5630   15.2500   -2.1430 C.2   317  ALA317      0.2287
     71  O         26.0120   14.5500   -1.2200 O.2   317  ALA317     -0.2864
     72  CB        27.0460   16.0770   -3.9880 C.3   317  ALA317      0.0319
     73  N         23.9050   11.8960   -0.9830 N.3   320  THR320     -0.1203
     74  CA        24.7680   10.7490   -0.7850 C.3   320  THR320      0.1994
     75  C         25.9740   10.9670    0.1220 C.2   320  THR320      0.2617
     76  O         26.5750    9.9990    0.5770 O.2   320  THR320     -0.2717
     77  CB        25.2690   10.1720   -2.1580 C.3   320  THR320      0.1784
     78  OG1       26.0650   11.1510   -2.8430 O.3   320  THR320     -0.2211
     79  CG2       24.0800    9.7760   -3.0280 C.3   320  THR320      0.0376
     80  N         26.3490   12.2170    0.3570 N.am  321  VAL321     -0.1979
     81  CA        27.5040   12.4990    1.2180 C.3   321  VAL321      0.1595
     82  C         27.1660   13.3000    2.4720 C.2   321  VAL321      0.2287
     83  O         27.3980   12.8530    3.5810 O.2   321  VAL321     -0.2864
     84  CB        28.6220   13.2650    0.4540 C.3   321  VAL321      0.0276
     85  CG1       29.8340   13.5380    1.3860 C.3   321  VAL321      0.0022
     86  CG2       29.0680   12.4570   -0.7390 C.3   321  VAL321      0.0022
@<TRIPOS>BOND
     1    59    57   am
     2    46    45    2
     3    45    44    1
     4    39    38    2
     5    57    58    2
     6    57    56    1
     7    55    56    1
     8    55    52    1
     9    51    52    1
    10    38    37    1
    11    44    43    1
    12    44    47    1
    13    49    47    1
    14    52    53    1
    15    47    48    1
    16    66    65    1
    17    20    17    1
    18    17    16    1
    19    17    18    1
    20    37    40    1
    21    37    36    1
    22    53    54    2
    23    40    41    1
    24    19    18    2
    25    48    50    1
    26    18    21   am
    27    65    67    1
    28    65    64    1
    29    36    42    1
    30    41    42    1
    31    21    22    1
    32    64    61    1
    33    22    23    1
    34    60    61    1
    35    61    62    1
    36    14    15   ar
    37    14    12   ar
    38    68    62   am
    39    68    69    1
    40    62    63    2
    41    23    24    2
    42    15    13   ar
    43    72    69    1
    44    12    10   ar
    45    69    70    1
    46    79    77    1
    47    78    77    1
    48    13    11   ar
    49    10    11   ar
    50    10     9    1
    51    77    74    1
    52    70    71    2
    53     9     6    1
    54    73    74    1
    55    74    75    1
    56    86    84    1
    57    30    31    1
    58    30    29    1
    59    25    26    1
    60    31    32    1
    61     6     5    1
    62     6     7    1
    63    75    80   am
    64    75    76    2
    65    26    29    1
    66    26    27    1
    67    32    33    2
    68     5     3   am
    69    80    81    1
    70    34    33    1
    71    84    81    1
    72    84    85    1
    73     7     8    2
    74    33    35    1
    75    81    82    1
    76     3     2    1
    77     3     4    2
    78    27    28    2
    79     2     1    1
    80    82    83    2
