@<TRIPOS>MOLECULE
tmp/1qw8B00.pdb
 165 159 0 0 0
SMALL
GASTEIGER

@<TRIPOS>ATOM
      1  N         62.8470   37.2220   83.9630 N.3    23  PHE23      -0.1241
      2  CA        63.7880   38.3470   84.0970 C.3    23  PHE23       0.1605
      3  C         63.2800   39.2760   85.1840 C.2    23  PHE23       0.2264
      4  O         62.0940   39.6560   85.1960 O.2    23  PHE23      -0.2867
      5  CB        63.8720   39.0230   82.7250 C.3    23  PHE23       0.0534
      6  CG        64.6660   40.3050   82.6570 C.ar   23  PHE23      -0.0203
      7  CD1       65.7380   40.5730   83.4990 C.ar   23  PHE23      -0.0042
      8  CD2       64.3330   41.2520   81.6860 C.ar   23  PHE23      -0.0042
      9  CE1       66.4450   41.7830   83.3990 C.ar   23  PHE23      -0.0003
     10  CE2       65.0640   42.4660   81.5610 C.ar   23  PHE23      -0.0003
     11  CZ        66.0980   42.7160   82.4130 C.ar   23  PHE23      -0.0000
     12  N         64.7580   42.8870   86.8460 N.3    25  GLU25      -0.1245
     13  CA        65.6530   44.0200   86.9430 C.3    25  GLU25       0.1567
     14  C         65.4090   44.8140   88.2320 C.2    25  GLU25       0.2260
     15  O         64.2700   44.8230   88.7770 O.2    25  GLU25      -0.2867
     16  CB        65.4340   44.9160   85.7270 C.3    25  GLU25       0.0388
     17  CG        66.4370   46.0530   85.5570 C.3    25  GLU25       0.1160
     18  CD        66.3920   46.6760   84.1830 C.2    25  GLU25       0.3649
     19  OE1       65.6200   46.1970   83.3230 O.co2  25  GLU25      -0.2457
     20  OE2       67.1470   47.6520   83.9610 O.co2  25  GLU25      -0.2457
     21  N         64.3460   47.6620   88.8030 N.3    27  LEU27      -0.1245
     22  CA        63.5530   48.5770   87.9930 C.3    27  LEU27       0.1561
     23  C         62.1870   48.6960   88.7010 C.2    27  LEU27       0.2260
     24  O         61.5510   47.7040   88.9790 O.2    27  LEU27      -0.2867
     25  CB        63.3790   48.0490   86.5570 C.3    27  LEU27       0.0270
     26  CG        62.8960   48.9940   85.4390 C.3    27  LEU27       0.0019
     27  CD1       62.8800   48.3320   84.0720 C.3    27  LEU27       0.0001
     28  CD2       61.5110   49.5820   85.7130 C.3    27  LEU27       0.0001
     29  N         69.5800   44.0020   81.7670 N.3    69  GLY69      -0.1210
     30  CA        68.8040   45.2390   81.6960 C.3    69  GLY69       0.1956
     31  C         69.6630   46.4830   81.8690 C.2    69  GLY69       0.2611
     32  O         70.8290   46.4210   82.2910 O.2    69  GLY69      -0.2717
     33  N         69.0940   47.6100   81.4730 N.am   70  ASN70      -0.1974
     34  CA        69.7550   48.9040   81.4970 C.3    70  ASN70       0.1688
     35  C         70.4520   49.2240   82.8170 C.2    70  ASN70       0.2292
     36  O         71.5270   49.8460   82.8510 O.2    70  ASN70      -0.2864
     37  CB        68.7260   49.9910   81.1710 C.3    70  ASN70       0.1181
     38  CG        68.1580   49.8630   79.7440 C.2    70  ASN70       0.2629
     39  OD1       68.7290   49.1760   78.8890 O.2    70  ASN70      -0.2716
     40  ND2       67.0440   50.5330   79.4910 N.am   70  ASN70      -0.0877
     41  N         67.0340   54.2640   85.1830 N.3    95  TRP95      -0.1241
     42  CA        65.6220   54.5230   85.4580 C.3    95  TRP95       0.1605
     43  C         65.4490   55.7510   86.3540 C.2    95  TRP95       0.2264
     44  O         64.3580   55.9780   86.9280 O.2    95  TRP95      -0.2867
     45  CB        64.9660   53.2710   86.0800 C.3    95  TRP95       0.0550
     46  CG        65.1770   52.1190   85.1700 C.ar   95  TRP95       0.0003
     47  CD1       66.0350   51.0530   85.3290 C.ar   95  TRP95       0.0946
     48  CD2       64.6110   51.9860   83.8900 C.ar   95  TRP95       0.0152
     49  NE1       65.9750   50.2430   84.2140 N.ar   95  TRP95      -0.2442
     50  CE2       65.1020   50.7890   83.3220 C.ar   95  TRP95       0.0810
     51  CE3       63.6790   52.7300   83.1670 C.ar   95  TRP95       0.0012
     52  CZ2       64.7030   50.3370   82.0630 C.ar   95  TRP95       0.0191
     53  CZ3       63.2930   52.2760   81.9210 C.ar   95  TRP95       0.0001
     54  CH2       63.8180   51.1080   81.3780 C.ar   95  TRP95       0.0015
     55  N         74.6130   44.2270   79.2070 N.3   170  ASN170     -0.1225
     56  CA        73.2980   44.3920   78.6560 C.3   170  ASN170      0.1785
     57  C         73.5290   45.0440   77.2920 C.2   170  ASN170      0.2597
     58  O         74.6770   45.4970   76.9980 O.2   170  ASN170     -0.2718
     59  CB        72.4500   45.2720   79.5800 C.3   170  ASN170      0.1169
     60  CG        71.0000   45.3660   79.1280 C.2   170  ASN170      0.2627
     61  OD1       70.3300   44.3420   78.9330 O.2   170  ASN170     -0.2716
     62  ND2       70.5420   46.5790   78.8810 N.am  170  ASN170     -0.0877
     63  N         72.5210   45.0000   76.4240 N.am  171  ALA171     -0.1979
     64  CA        72.6600   45.5190   75.0780 C.3   171  ALA171      0.1597
     65  C         73.1980   46.9270   75.1340 C.2   171  ALA171      0.2287
     66  O         72.5460   47.8210   75.6710 O.2   171  ALA171     -0.2864
     67  CB        71.3300   45.5040   74.3680 C.3   171  ALA171      0.0319
     68  N         70.8190   55.0560   74.4000 N.3   176  TRP176     -0.1241
     69  CA        70.2690   55.3240   75.7290 C.3   176  TRP176      0.1605
     70  C         70.9810   54.5290   76.8210 C.2   176  TRP176      0.2264
     71  O         70.5960   54.6250   77.9880 O.2   176  TRP176     -0.2867
     72  CB        68.7830   54.9520   75.7820 C.3   176  TRP176      0.0550
     73  CG        68.5690   53.4920   75.4920 C.ar  176  TRP176      0.0003
     74  CD1       68.6480   52.4420   76.3750 C.ar  176  TRP176      0.0946
     75  CD2       68.2880   52.9230   74.2180 C.ar  176  TRP176      0.0152
     76  NE1       68.4140   51.2540   75.7210 N.ar  176  TRP176     -0.2442
     77  CE2       68.1980   51.5210   74.3900 C.ar  176  TRP176      0.0810
     78  CE3       68.1040   53.4580   72.9340 C.ar  176  TRP176      0.0012
     79  CZ2       67.9050   50.6430   73.3220 C.ar  176  TRP176      0.0191
     80  CZ3       67.8200   52.5840   71.8710 C.ar  176  TRP176      0.0001
     81  CH2       67.7110   51.1990   72.0840 C.ar  176  TRP176      0.0015
     82  N         69.5170   45.7070   70.6780 N.3   212  SER212     -0.1202
     83  CA        68.4780   45.9610   71.6870 C.3   212  SER212      0.2020
     84  C         67.0930   45.8530   71.0440 C.2   212  SER212      0.2618
     85  O         66.0930   45.6320   71.7260 O.2   212  SER212     -0.2717
     86  CB        68.7070   47.2820   72.3970 C.3   212  SER212      0.2103
     87  OG        68.7510   48.3290   71.4550 O.3   212  SER212     -0.2182
     88  N         67.0550   45.8970   69.7170 N.am  213  ASN213     -0.1974
     89  CA        65.8050   45.9870   68.9780 C.3   213  ASN213      0.1688
     90  C         66.0770   45.6780   67.4880 C.2   213  ASN213      0.2292
     91  O         67.1320   46.0370   66.9730 O.2   213  ASN213     -0.2864
     92  CB        65.2970   47.4380   69.2270 C.3   213  ASN213      0.1181
     93  CG        64.0380   47.7470   68.5370 C.2   213  ASN213      0.2629
     94  OD1       63.8460   47.3690   67.3870 O.2   213  ASN213     -0.2716
     95  ND2       63.1320   48.4450   69.2320 N.am  213  ASN213     -0.0877
     96  N         66.1720   40.7310   71.6350 N.3   240  HIS240     -0.1241
     97  CA        65.1230   41.3920   72.4270 C.3   240  HIS240      0.1621
     98  C         64.0370   41.9230   71.4980 C.2   240  HIS240      0.2264
     99  O         64.3090   42.4500   70.4080 O.2   240  HIS240     -0.2867
    100  CB        65.7100   42.4880   73.3240 C.3   240  HIS240      0.0745
    101  CG        66.8540   41.9970   74.1480 C.ar  240  HIS240      0.0817
    102  ND1       67.5790   42.8160   74.9940 N.ar  240  HIS240     -0.2268
    103  CD2       67.3010   40.7350   74.3730 C.ar  240  HIS240      0.1154
    104  CE1       68.4570   42.0810   75.6610 C.ar  240  HIS240      0.1986
    105  NE2       68.3000   40.8110   75.3140 N.ar  240  HIS240     -0.2212
    106  N         59.9260   43.7690   71.9520 N.3   242  TYR242     -0.1241
    107  CA        58.6670   44.1600   72.5730 C.3   242  TYR242      0.1605
    108  C         57.6780   44.5820   71.4920 C.2   242  TYR242      0.2264
    109  O         58.0700   45.1240   70.4260 O.2   242  TYR242     -0.2867
    110  CB        58.8760   45.3010   73.5460 C.3   242  TYR242      0.0534
    111  CG        59.8310   44.9980   74.6840 C.ar  242  TYR242     -0.0201
    112  CD1       59.4220   44.2450   75.7790 C.ar  242  TYR242     -0.0009
    113  CD2       61.1570   45.4500   74.6610 C.ar  242  TYR242     -0.0009
    114  CE1       60.2850   43.9720   76.8290 C.ar  242  TYR242      0.0417
    115  CE2       62.0470   45.1580   75.7080 C.ar  242  TYR242      0.0417
    116  CZ        61.5960   44.4230   76.8020 C.ar  242  TYR242      0.1957
    117  OH        62.4490   44.1200   77.8790 O.3   242  TYR242     -0.2866
    118  N         64.8790   39.0730   76.3630 N.3   290  GLU290     -0.1245
    119  CA        63.7450   39.9300   76.6460 C.3   290  GLU290      0.1567
    120  C         62.6860   39.8130   75.5590 C.2   290  GLU290      0.2260
    121  O         62.9460   40.0820   74.3740 O.2   290  GLU290     -0.2867
    122  CB        64.1260   41.4180   76.8020 C.3   290  GLU290      0.0388
    123  CG        65.2170   41.6930   77.7970 C.3   290  GLU290      0.1160
    124  CD        65.6780   43.1540   77.8270 C.2   290  GLU290      0.3649
    125  OE1       64.9840   44.0580   77.2990 O.co2 290  GLU290     -0.2457
    126  OE2       66.7440   43.3770   78.4360 O.co2 290  GLU290     -0.2457
    127  N         54.7940   45.4500   75.5610 N.3   294  TRP294     -0.1241
    128  CA        55.1130   46.6090   76.3740 C.3   294  TRP294      0.1605
    129  C         54.6800   47.8930   75.6400 C.2   294  TRP294      0.2264
    130  O         55.2390   48.2320   74.6010 O.2   294  TRP294     -0.2867
    131  CB        56.6240   46.6570   76.6730 C.3   294  TRP294      0.0550
    132  CG        57.1200   47.9070   77.3510 C.ar  294  TRP294      0.0003
    133  CD1       56.3780   48.8640   77.9900 C.ar  294  TRP294      0.0946
    134  CD2       58.4910   48.3240   77.4800 C.ar  294  TRP294      0.0152
    135  NE1       57.2010   49.8320   78.5120 N.ar  294  TRP294     -0.2442
    136  CE2       58.5010   49.5370   78.1940 C.ar  294  TRP294      0.0810
    137  CE3       59.7130   47.7950   77.0550 C.ar  294  TRP294      0.0012
    138  CZ2       59.6870   50.2320   78.4920 C.ar  294  TRP294      0.0191
    139  CZ3       60.8920   48.4900   77.3620 C.ar  294  TRP294      0.0001
    140  CH2       60.8670   49.6810   78.0720 C.ar  294  TRP294      0.0015
    141  N         56.7410   51.1430   84.3760 N.3   314  LEU314     -0.1245
    142  CA        56.5280   50.0670   83.3910 C.3   314  LEU314      0.1561
    143  C         55.3450   49.1510   83.7470 C.2   314  LEU314      0.2260
    144  O         55.3210   47.9720   83.3700 O.2   314  LEU314     -0.2867
    145  CB        57.8190   49.2400   83.1760 C.3   314  LEU314      0.0270
    146  CG        58.7110   49.6990   82.0170 C.3   314  LEU314      0.0019
    147  CD1       59.4410   51.0100   82.3620 C.3   314  LEU314      0.0001
    148  CD2       59.6820   48.6330   81.5910 C.3   314  LEU314      0.0001
    149  N         58.9220   41.4830   82.1450 N.3   347  GLN347     -0.1245
    150  CA        59.6500   40.9060   83.2850 C.3   347  GLN347      0.1566
    151  C         58.6700   40.1750   84.1900 C.2   347  GLN347      0.2260
    152  O         57.4930   40.0860   83.8690 O.2   347  GLN347     -0.2867
    153  CB        60.3630   42.0070   84.0650 C.3   347  GLN347      0.0367
    154  CG        61.4020   42.7590   83.2110 C.3   347  GLN347      0.0905
    155  CD        62.2620   43.7300   84.0220 C.2   347  GLN347      0.2608
    156  OE1       62.3290   43.6620   85.2550 O.2   347  GLN347     -0.2717
    157  NE2       62.9270   44.6460   83.3110 N.am  347  GLN347     -0.0878
    158  N         56.1930   45.2590   83.4810 N.3   352  ILE352     -0.1245
    159  CA        55.6440   44.6180   82.2910 C.3   352  ILE352      0.1561
    160  C         55.5200   43.1060   82.5280 C.2   352  ILE352      0.2260
    161  O         56.1760   42.3120   81.8980 O.2   352  ILE352     -0.2867
    162  CB        56.4790   44.9750   80.9820 C.3   352  ILE352      0.0252
    163  CG1       57.9750   45.0180   81.2600 C.3   352  ILE352      0.0019
    164  CG2       56.0250   46.3350   80.3940 C.3   352  ILE352      0.0019
    165  CD1       58.8460   45.0470   79.9680 C.3   352  ILE352      0.0001
@<TRIPOS>BOND
     1    91    90    2
     2    94    93    2
     3    90    89    1
     4    93    92    1
     5    93    95   am
     6    89    92    1
     7    89    88    1
     8    88    84   am
     9    99    98    2
    10   109   108    2
    11    82    83    1
    12    84    83    1
    13    84    85    2
    14    87    86    1
    15   108   107    1
    16    98    97    1
    17    96    97    1
    18    83    86    1
    19    80    81   ar
    20    80    78   ar
    21   106   107    1
    22    81    79   ar
    23    97   100    1
    24   107   110    1
    25    78    75   ar
    26    79    77   ar
    27   100   101    1
    28   110   111    1
    29   101   103   ar
    30   101   102   ar
    31    75    77   ar
    32    75    73   ar
    33    67    64    1
    34   103   105   ar
    35   121   120    2
    36    77    76   ar
    37    68    69    1
    38   130   129    2
    39   113   111   ar
    40   113   115   ar
    41   111   112   ar
    42   102   104   ar
    43    64    65    1
    44    64    63    1
    45    65    66    2
    46   105   104   ar
    47    73    72    1
    48    73    74   ar
    49   120   119    1
    50   127   128    1
    51   129   128    1
    52   115   116   ar
    53    76    74   ar
    54    69    72    1
    55    69    70    1
    56   112   114   ar
    57   118   119    1
    58   128   131    1
    59    63    57   am
    60   119   122    1
    61   131   132    1
    62   116   114   ar
    63   116   117    1
    64   122   123    1
    65    70    71    2
    66    58    57    2
    67   137   139   ar
    68   137   134   ar
    69    57    56    1
    70   125   124   ar
    71   132   134   ar
    72   132   133   ar
    73   139   140   ar
    74   134   136   ar
    75   123   124    1
    76   124   126   ar
    77   133   135   ar
    78   140   138   ar
    79   136   138   ar
    80   136   135   ar
    81    56    55    1
    82    56    59    1
    83    62    60   am
    84    39    38    2
    85    61    60    2
    86    60    59    1
    87    40    38   am
    88    38    37    1
    89   165   163    1
    90   164   162    1
    91   162   163    1
    92   162   159    1
    93    37    34    1
    94    54    53   ar
    95    54    52   ar
    96    33    34    1
    97    33    31   am
    98    34    35    1
    99    10     8   ar
   100    10    11   ar
   101   148   146    1
   102     8     6   ar
   103    30    29    1
   104    30    31    1
   105    31    32    2
   106   161   160    2
   107    53    51   ar
   108   146   147    1
   109   146   145    1
   110    52    50   ar
   111   149   150    1
   112   159   160    1
   113   159   158    1
   114    11     9   ar
   115     6     5    1
   116     6     7   ar
   117     5     2    1
   118    35    36    2
   119    51    48   ar
   120   145   142    1
   121   154   155    1
   122   154   153    1
   123   150   153    1
   124   150   151    1
   125   157   155   am
   126    50    48   ar
   127    50    49   ar
   128    19    18   ar
   129   144   143    2
   130   142   143    1
   131   142   141    1
   132     9     7   ar
   133   152   151    2
   134    48    46   ar
   135    20    18   ar
   136     1     2    1
   137   155   156    2
   138    27    26    1
   139     2     3    1
   140    18    17    1
   141    49    47   ar
   142    46    47   ar
   143    46    45    1
   144    41    42    1
   145     3     4    2
   146    26    28    1
   147    26    25    1
   148    42    45    1
   149    42    43    1
   150    17    16    1
   151    16    13    1
   152    43    44    2
   153    25    22    1
   154    12    13    1
   155    13    14    1
   156    22    23    1
   157    22    21    1
   158    14    15    2
   159    23    24    2
