@<TRIPOS>MOLECULE
tmp/1qw9A00.pdb
 165 159 0 0 0
SMALL
GASTEIGER

@<TRIPOS>ATOM
      1  N         78.2640   23.7290   31.8890 N.3    23  PHE23      -0.1241
      2  CA        79.2230   24.8280   31.7460 C.3    23  PHE23       0.1605
      3  C         80.2230   24.4120   30.6880 C.2    23  PHE23       0.2264
      4  O         80.7440   23.2820   30.7180 O.2    23  PHE23      -0.2867
      5  CB        79.8870   25.0020   33.1240 C.3    23  PHE23       0.0534
      6  CG        81.0920   25.9420   33.2050 C.ar   23  PHE23      -0.0203
      7  CD1       81.2500   27.0640   32.3930 C.ar   23  PHE23      -0.0042
      8  CD2       82.0610   25.6860   34.1590 C.ar   23  PHE23      -0.0042
      9  CE1       82.3900   27.8640   32.5070 C.ar   23  PHE23      -0.0003
     10  CE2       83.1630   26.4600   34.2770 C.ar   23  PHE23      -0.0003
     11  CZ        83.3230   27.5450   33.4670 C.ar   23  PHE23      -0.0000
     12  N         83.7050   26.2280   29.0250 N.3    25  GLU25      -0.1245
     13  CA        84.7030   27.2880   28.9570 C.3    25  GLU25       0.1567
     14  C         85.5220   27.1320   27.6830 C.2    25  GLU25       0.2260
     15  O         85.6970   26.0100   27.1800 O.2    25  GLU25      -0.2867
     16  CB        85.5800   27.2220   30.2020 C.3    25  GLU25       0.0388
     17  CG        86.6250   28.3280   30.3630 C.3    25  GLU25       0.1160
     18  CD        87.2480   28.3440   31.7340 C.2    25  GLU25       0.3649
     19  OE1       86.8320   27.5330   32.5900 O.co2  25  GLU25      -0.2457
     20  OE2       88.1810   29.1740   31.9440 O.co2  25  GLU25      -0.2457
     21  N         88.5290   26.3810   27.1760 N.3    27  LEU27      -0.1245
     22  CA        89.5230   25.7020   27.9700 C.3    27  LEU27       0.1561
     23  C         89.8100   24.3750   27.2710 C.2    27  LEU27       0.2260
     24  O         88.8790   23.6160   27.0030 O.2    27  LEU27      -0.2867
     25  CB        89.0210   25.4340   29.3930 C.3    27  LEU27       0.0270
     26  CG        90.0370   25.0850   30.4760 C.3    27  LEU27       0.0019
     27  CD1       89.3360   25.0810   31.8250 C.3    27  LEU27       0.0001
     28  CD2       90.7520   23.7590   30.2420 C.3    27  LEU27       0.0001
     29  N         84.2170   31.1620   34.1050 N.3    69  GLY69      -0.1210
     30  CA        85.5190   30.5340   34.2040 C.3    69  GLY69       0.1956
     31  C         86.6570   31.4980   34.0690 C.2    69  GLY69       0.2611
     32  O         86.4810   32.6570   33.6800 O.2    69  GLY69      -0.2717
     33  N         87.8420   31.0300   34.4150 N.am   70  ASN70      -0.1974
     34  CA        89.0140   31.8920   34.4430 C.3    70  ASN70       0.1688
     35  C         89.2880   32.5890   33.1120 C.2    70  ASN70       0.2292
     36  O         89.8070   33.7090   33.0830 O.2    70  ASN70      -0.2864
     37  CB        90.2390   31.0600   34.8550 C.3    70  ASN70       0.1181
     38  CG        90.2000   30.5940   36.2940 C.2    70  ASN70       0.2629
     39  OD1       89.4120   31.0700   37.0890 O.2    70  ASN70      -0.2716
     40  ND2       91.0570   29.6290   36.6260 N.am   70  ASN70      -0.0877
     41  N         94.7390   29.8310   30.7610 N.3    95  TRP95      -0.1241
     42  CA        95.1310   28.4370   30.4770 C.3    95  TRP95       0.1605
     43  C         96.3890   28.3760   29.5980 C.2    95  TRP95       0.2264
     44  O         96.7300   27.3150   29.0580 O.2    95  TRP95      -0.2867
     45  CB        93.9250   27.6680   29.8960 C.3    95  TRP95       0.0550
     46  CG        92.7800   27.7190   30.8450 C.ar   95  TRP95       0.0003
     47  CD1       91.6450   28.4360   30.7060 C.ar   95  TRP95       0.0946
     48  CD2       92.7190   27.1200   32.1400 C.ar   95  TRP95       0.0152
     49  NE1       90.8630   28.3230   31.8280 N.ar   95  TRP95      -0.2442
     50  CE2       91.4970   27.5100   32.7250 C.ar   95  TRP95       0.0810
     51  CE3       93.5510   26.2510   32.8460 C.ar   95  TRP95       0.0012
     52  CZ2       91.0860   27.0800   33.9840 C.ar   95  TRP95       0.0191
     53  CZ3       93.1300   25.8170   34.1120 C.ar   95  TRP95       0.0001
     54  CH2       91.9210   26.2450   34.6600 C.ar   95  TRP95       0.0015
     55  N         83.9240   36.2100   36.7040 N.3   170  ASN170     -0.1225
     56  CA        84.2290   34.9140   37.3210 C.3   170  ASN170      0.1785
     57  C         84.8450   35.1930   38.6770 C.2   170  ASN170      0.2597
     58  O         85.3740   36.3200   38.9140 O.2   170  ASN170     -0.2718
     59  CB        85.2430   34.1610   36.4620 C.3   170  ASN170      0.1169
     60  CG        85.4000   32.7310   36.8980 C.2   170  ASN170      0.2627
     61  OD1       84.4320   32.0040   37.0080 O.2   170  ASN170     -0.2716
     62  ND2       86.6350   32.3180   37.1410 N.am  170  ASN170     -0.0877
     63  N         84.8780   34.1960   39.5480 N.am  171  ALA171     -0.1979
     64  CA        85.4620   34.3680   40.8610 C.3   171  ALA171      0.1597
     65  C         86.8100   35.0020   40.6640 C.2   171  ALA171      0.2287
     66  O         87.5820   34.5580   39.8580 O.2   171  ALA171     -0.2864
     67  CB        85.5670   32.9990   41.5580 C.3   171  ALA171      0.0319
     68  N         95.2770   33.5880   41.4650 N.3   176  TRP176     -0.1241
     69  CA        95.5420   33.0710   40.1320 C.3   176  TRP176      0.1605
     70  C         94.6740   33.6990   39.0660 C.2   176  TRP176      0.2264
     71  O         94.8420   33.4050   37.8820 O.2   176  TRP176     -0.2867
     72  CB        95.2750   31.5720   40.0910 C.3   176  TRP176      0.0550
     73  CG        93.8240   31.1840   40.3000 C.ar  176  TRP176      0.0003
     74  CD1       92.8380   31.0460   39.3500 C.ar  176  TRP176      0.0946
     75  CD2       93.2290   30.8310   41.5450 C.ar  176  TRP176      0.0152
     76  NE1       91.6630   30.6450   39.9460 N.ar  176  TRP176     -0.2442
     77  CE2       91.8720   30.5280   41.2960 C.ar  176  TRP176      0.0810
     78  CE3       93.7020   30.7770   42.8630 C.ar  176  TRP176      0.0012
     79  CZ2       90.9960   30.1240   42.3170 C.ar  176  TRP176      0.0191
     80  CZ3       92.8240   30.3890   43.8810 C.ar  176  TRP176      0.0001
     81  CH2       91.4960   30.0680   43.5930 C.ar  176  TRP176      0.0015
     82  N         86.1740   31.3790   45.1320 N.3   212  SER212     -0.1202
     83  CA        86.6110   30.3510   44.1730 C.3   212  SER212      0.2020
     84  C         86.5620   28.9720   44.8310 C.2   212  SER212      0.2618
     85  O         86.3470   27.9370   44.1720 O.2   212  SER212     -0.2717
     86  CB        87.9980   30.6940   43.5810 C.3   212  SER212      0.2103
     87  OG        88.9920   30.8850   44.5850 O.3   212  SER212     -0.2182
     88  N         86.7520   28.9540   46.1460 N.am  213  ASN213     -0.1974
     89  CA        86.8780   27.7160   46.9120 C.3   213  ASN213      0.1688
     90  C         86.5070   28.0420   48.3590 C.2   213  ASN213      0.2292
     91  O         86.8630   29.0970   48.8740 O.2   213  ASN213     -0.2864
     92  CB        88.3430   27.1910   46.8050 C.3   213  ASN213      0.1181
     93  CG        88.5470   25.7400   47.2850 C.2   213  ASN213      0.2629
     94  OD1       88.0160   25.3040   48.3080 O.2   213  ASN213     -0.2716
     95  ND2       89.3830   24.9940   46.5390 N.am  213  ASN213     -0.0877
     96  N         81.2320   27.4070   44.3080 N.3   240  HIS240     -0.1241
     97  CA        82.0140   26.4780   43.5190 C.3   240  HIS240      0.1621
     98  C         82.6280   25.4200   44.4340 C.2   240  HIS240      0.2264
     99  O         83.1670   25.7550   45.5030 O.2   240  HIS240     -0.2867
    100  CB        83.1780   27.2110   42.8650 C.3   240  HIS240      0.0745
    101  CG        82.8160   28.3140   41.8930 C.ar  240  HIS240      0.0817
    102  ND1       83.6490   29.3920   41.6750 N.ar  240  HIS240     -0.2268
    103  CD2       81.7680   28.4890   41.0550 C.ar  240  HIS240      0.1154
    104  CE1       83.1280   30.1790   40.7490 C.ar  240  HIS240      0.1986
    105  NE2       81.9900   29.6440   40.3400 N.ar  240  HIS240     -0.2212
    106  N         84.9510   21.5700   43.9950 N.3   242  TYR242     -0.1241
    107  CA        85.5030   20.3640   43.3770 C.3   242  TYR242      0.1605
    108  C         86.0060   19.4230   44.4690 C.2   242  TYR242      0.2264
    109  O         86.5420   19.8560   45.4850 O.2   242  TYR242     -0.2867
    110  CB        86.6340   20.7140   42.4250 C.3   242  TYR242      0.0534
    111  CG        86.2440   21.6210   41.2870 C.ar  242  TYR242     -0.0201
    112  CD1       85.5900   21.1160   40.1800 C.ar  242  TYR242     -0.0009
    113  CD2       86.5390   22.9870   41.3120 C.ar  242  TYR242     -0.0009
    114  CE1       85.2060   21.9340   39.1410 C.ar  242  TYR242      0.0417
    115  CE2       86.1810   23.8110   40.2680 C.ar  242  TYR242      0.0417
    116  CZ        85.5250   23.2830   39.1720 C.ar  242  TYR242      0.1957
    117  OH        85.1470   24.0540   38.0800 O.3   242  TYR242     -0.2866
    118  N         79.8290   25.9920   39.5790 N.3   290  GLU290     -0.1245
    119  CA        80.8030   24.9460   39.2690 C.3   290  GLU290      0.1567
    120  C         80.7740   23.8680   40.3270 C.2   290  GLU290      0.2260
    121  O         80.9880   24.1580   41.5070 O.2   290  GLU290     -0.2867
    122  CB        82.2410   25.4950   39.2030 C.3   290  GLU290      0.0388
    123  CG        82.4280   26.5530   38.1190 C.3   290  GLU290      0.1160
    124  CD        83.7950   27.1920   38.0230 C.2   290  GLU290      0.3649
    125  OE1       84.7510   26.6360   38.5520 O.co2 290  GLU290     -0.2457
    126  OE2       83.8840   28.2790   37.3930 O.co2 290  GLU290     -0.2457
    127  N         87.2160   16.6210   40.3790 N.3   294  TRP294     -0.1241
    128  CA        88.3280   17.0730   39.5810 C.3   294  TRP294      0.1605
    129  C         89.6170   16.7660   40.3200 C.2   294  TRP294      0.2264
    130  O         89.9370   17.4330   41.3160 O.2   294  TRP294     -0.2867
    131  CB        88.2230   18.5840   39.2730 C.3   294  TRP294      0.0550
    132  CG        89.4160   19.1730   38.5870 C.ar  294  TRP294      0.0003
    133  CD1       90.4240   18.5170   37.9690 C.ar  294  TRP294      0.0946
    134  CD2       89.7210   20.5740   38.4610 C.ar  294  TRP294      0.0152
    135  NE1       91.3450   19.4030   37.4780 N.ar  294  TRP294     -0.2442
    136  CE2       90.9360   20.6870   37.7760 C.ar  294  TRP294      0.0810
    137  CE3       89.0780   21.7510   38.8640 C.ar  294  TRP294      0.0012
    138  CZ2       91.5170   21.9270   37.4740 C.ar  294  TRP294      0.0191
    139  CZ3       89.6630   22.9830   38.5770 C.ar  294  TRP294      0.0001
    140  CH2       90.8560   23.0660   37.8920 C.ar  294  TRP294      0.0015
    141  N         92.7380   19.1610   31.6730 N.3   314  LEU314     -0.1245
    142  CA        91.6730   18.8520   32.6090 C.3   314  LEU314      0.1561
    143  C         90.8890   17.5910   32.1800 C.2   314  LEU314      0.2260
    144  O         89.7380   17.3940   32.5310 O.2   314  LEU314     -0.2867
    145  CB        90.7570   20.0700   32.8170 C.3   314  LEU314      0.0270
    146  CG        91.1470   20.9990   33.9830 C.3   314  LEU314      0.0019
    147  CD1       92.4210   21.7450   33.6930 C.3   314  LEU314      0.0001
    148  CD2       90.0280   21.9980   34.2710 C.3   314  LEU314      0.0001
    149  N         82.8470   20.3160   33.7280 N.3   347  GLN347     -0.1245
    150  CA        82.2720   20.9770   32.5550 C.3   347  GLN347      0.1566
    151  C         81.6380   19.9150   31.6680 C.2   347  GLN347      0.2260
    152  O         81.6290   18.7270   32.0160 O.2   347  GLN347     -0.2867
    153  CB        83.3520   21.7660   31.7910 C.3   347  GLN347      0.0367
    154  CG        83.9420   22.8860   32.6500 C.3   347  GLN347      0.0905
    155  CD        84.7870   23.8740   31.8900 C.2   347  GLN347      0.2608
    156  OE1       84.7450   23.9760   30.6720 O.2   347  GLN347     -0.2717
    157  NE2       85.5700   24.6430   32.6530 N.am  347  GLN347     -0.0878
    158  N         86.9490   17.9830   32.4800 N.3   352  ILE352     -0.1245
    159  CA        86.3180   17.4180   33.6630 C.3   352  ILE352      0.1561
    160  C         84.8420   17.1300   33.4040 C.2   352  ILE352      0.2260
    161  O         83.9250   17.6590   34.0240 O.2   352  ILE352     -0.2867
    162  CB        86.5780   18.3000   34.9600 C.3   352  ILE352      0.0252
    163  CG1       86.4540   19.8110   34.6960 C.3   352  ILE352      0.0019
    164  CG2       87.9400   17.9770   35.5160 C.3   352  ILE352      0.0019
    165  CD1       86.5040   20.6720   35.9610 C.3   352  ILE352      0.0001
@<TRIPOS>BOND
     1    24    23    2
     2    21    22    1
     3    15    14    2
     4    23    22    1
     5    14    13    1
     6    22    25    1
     7    13    12    1
     8    13    16    1
     9    44    43    2
    10    25    26    1
    11    43    42    1
    12    45    42    1
    13    45    46    1
    14    16    17    1
    15    28    26    1
    16    17    18    1
    17    26    27    1
    18    42    41    1
    19   156   155    2
    20     3     4    2
    21     3     2    1
    22    47    46   ar
    23    47    49   ar
    24    46    48   ar
    25   151   152    2
    26   151   150    1
    27   141   142    1
    28    18    20   ar
    29    18    19   ar
    30     2     1    1
    31     2     5    1
    32   153   150    1
    33   153   154    1
    34    49    50   ar
    35   155   154    1
    36   155   157   am
    37    48    50   ar
    38    48    51   ar
    39   143   144    2
    40   143   142    1
    41     7     9   ar
    42     7     6   ar
    43   158   159    1
    44     9    11   ar
    45   150   149    1
    46   142   145    1
    47    50    52   ar
    48   145   146    1
    49    51    53   ar
    50    36    35    2
    51    35    34    1
    52     5     6    1
    53     6     8   ar
    54   160   159    1
    55   160   161    2
    56    11    10   ar
    57   159   162    1
    58    32    31    2
    59   147   146    1
    60   146   148    1
    61    52    54   ar
    62    31    30    1
    63    31    33   am
    64    29    30    1
    65    53    54   ar
    66     8    10   ar
    67    33    34    1
    68    34    37    1
    69   163   162    1
    70   163   165    1
    71    37    38    1
    72   162   164    1
    73    38    40   am
    74    38    39    2
    75    59    60    1
    76    59    56    1
    77    55    56    1
    78    60    61    2
    79    60    62   am
    80    56    57    1
    81   126   124   ar
    82   138   136   ar
    83   138   140   ar
    84   135   136   ar
    85   135   133   ar
    86   136   134   ar
    87    71    70    2
    88   140   139   ar
    89   133   132   ar
    90   124   123    1
    91   124   125   ar
    92   117   116    1
    93   123   122    1
    94   134   132   ar
    95   134   137   ar
    96   139   137   ar
    97   132   131    1
    98    57    58    2
    99    57    63   am
   100    70    69    1
   101   114   116   ar
   102   114   112   ar
   103   116   115   ar
   104   122   119    1
   105   119   118    1
   106   119   120    1
   107   131   128    1
   108    74    76   ar
   109    74    73   ar
   110    63    64    1
   111   128   129    1
   112   128   127    1
   113    66    65    2
   114    76    77   ar
   115    72    69    1
   116    72    73    1
   117    69    68    1
   118   112   111   ar
   119   115   113   ar
   120    73    75   ar
   121   129   130    2
   122   120   121    2
   123   105   104   ar
   124   105   103   ar
   125    65    64    1
   126   104   102   ar
   127    64    67    1
   128   103   101   ar
   129   111   113   ar
   130   111   110    1
   131    77    75   ar
   132    77    79   ar
   133    75    78   ar
   134   102   101   ar
   135   101   100    1
   136    79    81   ar
   137   110   107    1
   138    78    80   ar
   139   100    97    1
   140   107   106    1
   141   107   108    1
   142    97    96    1
   143    97    98    1
   144    86    83    1
   145    86    87    1
   146    81    80   ar
   147    85    84    2
   148    83    84    1
   149    83    82    1
   150    98    99    2
   151   108   109    2
   152    84    88   am
   153    88    89    1
   154    95    93   am
   155    92    89    1
   156    92    93    1
   157    89    90    1
   158    93    94    2
   159    90    91    2
