@<TRIPOS>MOLECULE
tmp/1qwcA02.pdb
 138 136 0 0 0
SMALL
GASTEIGER

@<TRIPOS>ATOM
      1  N         -3.8630    6.8850   53.6810 N.3   119  CYS119     -0.1235
      2  CA        -4.4520    5.7230   54.3700 C.3   119  CYS119      0.1677
      3  C         -5.7020    5.1610   53.6980 C.2   119  CYS119      0.2270
      4  O         -6.6960    5.8600   53.5750 O.2   119  CYS119     -0.2867
      5  CB        -4.8160    6.0830   55.8040 C.3   119  CYS119      0.0956
      6  SG        -5.5260    4.6940   56.7550 S.3   119  CYS119     -0.0801
      7  N          8.0400    2.2840   64.2390 N.3   182  GLN182     -0.1245
      8  CA         6.7950    1.6470   64.6130 C.3   182  GLN182      0.1566
      9  C          7.0550    1.0690   65.9920 C.2   182  GLN182      0.2260
     10  O          8.1820    0.6790   66.2930 O.2   182  GLN182     -0.2867
     11  CB         6.4840    0.5000   63.6790 C.3   182  GLN182      0.0367
     12  CG         6.2560    0.8750   62.2770 C.3   182  GLN182      0.0905
     13  CD         6.3890   -0.3420   61.4040 C.2   182  GLN182      0.2608
     14  OE1        7.2860   -0.4260   60.5720 O.2   182  GLN182     -0.2717
     15  NE2        5.4990   -1.3100   61.5970 N.am  182  GLN182     -0.0878
     16  N          8.7860   -3.7180   65.7640 N.3   185  ARG185     -0.1245
     17  CA         9.5650   -3.9550   64.5500 C.3   185  ARG185      0.1563
     18  C         10.7220   -4.9070   64.8480 C.2   185  ARG185      0.2260
     19  O         11.0960   -5.1070   66.0040 O.2   185  ARG185     -0.2867
     20  CB        10.1370   -2.6420   63.9840 C.3   185  ARG185      0.0307
     21  CG         9.2010   -1.8380   63.0930 C.3   185  ARG185      0.0489
     22  CD        10.0000   -0.9780   62.1150 C.3   185  ARG185      0.2205
     23  NE         9.6890   -1.2980   60.7210 N.pl3 185  ARG185     -0.0865
     24  CZ        10.2780   -0.7510   59.6610 C.cat 185  ARG185      0.5346
     25  NH1       11.2310    0.1560   59.8120 N.pl3 185  ARG185      0.1354
     26  NH2        9.9020   -1.1060   58.4410 N.pl3 185  ARG185      0.1354
     27  N          0.3460   -3.2420   63.5780 N.3   269  PRO269     -0.2116
     28  CA         0.9810   -2.1670   62.8130 C.3   269  PRO269      0.1372
     29  C          0.7880   -0.8900   63.6310 C.2   269  PRO269      0.2244
     30  O         -0.3140   -0.3640   63.7200 O.2   269  PRO269     -0.2868
     31  CB         0.1880   -2.1590   61.5130 C.3   269  PRO269      0.0268
     32  CG        -1.1780   -2.5560   61.9640 C.3   269  PRO269      0.0207
     33  CD        -0.9130   -3.6660   62.9390 C.3   269  PRO269      0.0892
     34  N          2.3160    2.8120   63.8160 N.3   271  VAL271     -0.1245
     35  CA         3.2000    3.8960   63.3660 C.3   271  VAL271      0.1561
     36  C          3.5010    4.8290   64.5410 C.2   271  VAL271      0.2260
     37  O          2.5780    5.3600   65.1570 O.2   271  VAL271     -0.2867
     38  CB         2.5450    4.7170   62.2320 C.3   271  VAL271      0.0252
     39  CG1        3.4500    5.8700   61.8080 C.3   271  VAL271      0.0019
     40  CG2        2.2980    3.8340   61.0680 C.3   271  VAL271      0.0019
     41  N          6.4720    7.3350   64.4460 N.3   273  ASN273     -0.1240
     42  CA         7.4670    8.3730   64.1800 C.3   273  ASN273      0.1653
     43  C          6.8910    9.6200   63.5000 C.2   273  ASN273      0.2266
     44  O          7.6420   10.5270   63.1230 O.2   273  ASN273     -0.2867
     45  CB         8.6150    7.8100   63.3380 C.3   273  ASN273      0.1155
     46  CG         8.1570    7.3080   61.9760 C.2   273  ASN273      0.2627
     47  OD1        8.9700    6.8600   61.1680 O.2   273  ASN273     -0.2716
     48  ND2        6.8580    7.3830   61.7140 N.am  273  ASN273     -0.0877
     49  N          0.2450    5.5260   66.7770 N.3   288  PHE288     -0.1227
     50  CA        -1.0960    5.0930   66.4020 C.3   288  PHE288      0.1736
     51  C         -1.0170    3.7150   65.7660 C.2   288  PHE288      0.2596
     52  O          0.0270    3.3430   65.2410 O.2   288  PHE288     -0.2718
     53  CB        -1.7880    6.1270   65.4750 C.3   288  PHE288      0.0547
     54  CG        -1.0640    6.4210   64.1820 C.ar  288  PHE288     -0.0202
     55  CD1       -1.2540    5.6170   63.0560 C.ar  288  PHE288     -0.0042
     56  CD2       -0.2480    7.5430   64.0680 C.ar  288  PHE288     -0.0042
     57  CE1       -0.6520    5.9300   61.8420 C.ar  288  PHE288     -0.0003
     58  CE2        0.3600    7.8630   62.8550 C.ar  288  PHE288     -0.0003
     59  CZ         0.1530    7.0530   61.7350 C.ar  288  PHE288     -0.0000
     60  N         -2.1070    2.9510   65.8430 N.am  289  SER289     -0.1938
     61  CA        -2.1480    1.5900   65.3050 C.3   289  SER289      0.2055
     62  C         -3.5560    1.1760   64.9030 C.2   289  SER289      0.2644
     63  O         -4.5480    1.6830   65.4260 O.2   289  SER289     -0.2714
     64  CB        -1.6320    0.5800   66.3500 C.3   289  SER289      0.2130
     65  OG        -2.5030    0.4650   67.4710 O.3   289  SER289     -0.2179
     66  N         -3.6260    0.2470   63.9590 N.am  290  GLY290     -0.1939
     67  CA        -4.9000   -0.2680   63.4980 C.3   290  GLY290      0.2014
     68  C         -4.6200   -1.7330   63.2750 C.2   290  GLY290      0.2639
     69  O         -4.1700   -2.4210   64.1860 O.2   290  GLY290     -0.2714
     70  N         -4.8920   -2.2260   62.0800 N.am  291  TRP291     -0.1959
     71  CA        -4.6010   -3.6170   61.7710 C.3   291  TRP291      0.1771
     72  C         -4.1030   -3.7110   60.3190 C.2   291  TRP291      0.2620
     73  O         -4.2960   -2.7870   59.5200 O.2   291  TRP291     -0.2715
     74  CB        -5.8110   -4.5190   62.0550 C.3   291  TRP291      0.0590
     75  CG        -7.0570   -4.2010   61.2980 C.ar  291  TRP291      0.0006
     76  CD1       -7.3020   -4.4630   59.9830 C.ar  291  TRP291      0.0946
     77  CD2       -8.2230   -3.5390   61.7990 C.ar  291  TRP291      0.0152
     78  NE1       -8.5370   -4.0040   59.6300 N.ar  291  TRP291     -0.2442
     79  CE2       -9.1300   -3.4310   60.7250 C.ar  291  TRP291      0.0810
     80  CE3       -8.5920   -3.0280   63.0500 C.ar  291  TRP291      0.0012
     81  CZ2      -10.3880   -2.8280   60.8600 C.ar  291  TRP291      0.0191
     82  CZ3       -9.8420   -2.4320   63.1860 C.ar  291  TRP291      0.0001
     83  CH2      -10.7240   -2.3370   62.0990 C.ar  291  TRP291      0.0015
     84  N         -3.4430   -4.8150   59.9840 N.am  292  TYR292     -0.1960
     85  CA        -2.8360   -4.9930   58.6690 C.3   292  TYR292      0.1771
     86  C         -3.6880   -5.2830   57.4570 C.2   292  TYR292      0.2619
     87  O         -4.7750   -5.8380   57.5380 O.2   292  TYR292     -0.2715
     88  CB        -1.7870   -6.1080   58.7310 C.3   292  TYR292      0.0574
     89  CG        -0.3860   -5.6460   59.0700 C.ar  292  TYR292     -0.0198
     90  CD1        0.2330   -4.6370   58.3240 C.ar  292  TYR292     -0.0009
     91  CD2        0.3170   -6.2000   60.1500 C.ar  292  TYR292     -0.0009
     92  CE1        1.5060   -4.1830   58.6400 C.ar  292  TYR292      0.0417
     93  CE2        1.5990   -5.7520   60.4780 C.ar  292  TYR292      0.0417
     94  CZ         2.1850   -4.7390   59.7140 C.ar  292  TYR292      0.1957
     95  OH         3.4420   -4.2790   60.0310 O.3   292  TYR292     -0.2866
     96  N         -3.1790   -4.8350   56.3240 N.am  293  MET293     -0.1977
     97  CA        -3.7650   -5.1580   55.0560 C.3   293  MET293      0.1605
     98  C         -2.6520   -6.1400   54.6180 C.2   293  MET293      0.2287
     99  O         -1.4570   -5.8120   54.6920 O.2   293  MET293     -0.2864
    100  CB        -3.8500   -3.9390   54.1360 C.3   293  MET293      0.0413
    101  CG        -4.4700   -4.2780   52.8040 C.3   293  MET293      0.0598
    102  SD        -4.7890   -2.8590   51.7190 S.3   293  MET293     -0.1393
    103  CE        -3.1380   -2.3120   51.3340 C.3   293  MET293      0.0692
    104  N          0.7980   -5.3140   52.8350 N.3   296  GLU296     -0.1245
    105  CA         1.8260   -4.5900   53.5720 C.3   296  GLU296      0.1567
    106  C          2.9810   -5.5160   53.9670 C.2   296  GLU296      0.2260
    107  O          4.1550   -5.1850   53.7710 O.2   296  GLU296     -0.2867
    108  CB         1.2120   -3.9400   54.8120 C.3   296  GLU296      0.0388
    109  CG         0.4210   -2.6700   54.4980 C.3   296  GLU296      0.1160
    110  CD        -0.0100   -1.9450   55.7420 C.2   296  GLU296      0.3649
    111  OE1       -1.1660   -2.1150   56.1670 O.co2 296  GLU296     -0.2457
    112  OE2        0.8220   -1.2110   56.3060 O.co2 296  GLU296     -0.2457
    113  N         -0.5450    5.9130   46.7390 N.3   382  TRP382     -0.1241
    114  CA        -0.4490    5.1450   47.9680 C.3   382  TRP382      0.1605
    115  C         -1.6390    4.2260   48.2140 C.2   382  TRP382      0.2264
    116  O         -1.4820    3.1090   48.7130 O.2   382  TRP382     -0.2867
    117  CB        -0.2640    6.0950   49.1570 C.3   382  TRP382      0.0550
    118  CG         1.1830    6.4060   49.4540 C.ar  382  TRP382      0.0003
    119  CD1        2.0740    7.0410   48.6380 C.ar  382  TRP382      0.0946
    120  CD2        1.9050    6.0490   50.6370 C.ar  382  TRP382      0.0152
    121  NE1        3.3120    7.0990   49.2370 N.ar  382  TRP382     -0.2442
    122  CE2        3.2360    6.4960   50.4650 C.ar  382  TRP382      0.0810
    123  CE3        1.5590    5.3910   51.8230 C.ar  382  TRP382      0.0012
    124  CZ2        4.2170    6.3080   51.4310 C.ar  382  TRP382      0.0191
    125  CZ3        2.5330    5.2030   52.7840 C.ar  382  TRP382      0.0001
    126  CH2        3.8490    5.6590   52.5840 C.ar  382  TRP382      0.0015
    127  N          5.1920   13.9920   58.6100 N.3   410  TYR410     -0.1241
    128  CA         6.4840   13.3490   58.8170 C.3   410  TYR410      0.1605
    129  C          7.3480   14.3440   59.6060 C.2   410  TYR410      0.2264
    130  O          7.0800   15.5480   59.6130 O.2   410  TYR410     -0.2867
    131  CB         7.1740   13.0520   57.4800 C.3   410  TYR410      0.0534
    132  CG         6.4640   12.0620   56.5850 C.ar  410  TYR410     -0.0201
    133  CD1        6.2820   10.7390   56.9790 C.ar  410  TYR410     -0.0009
    134  CD2        5.9960   12.4460   55.3240 C.ar  410  TYR410     -0.0009
    135  CE1        5.6520    9.8190   56.1350 C.ar  410  TYR410      0.0417
    136  CE2        5.3670   11.5350   54.4780 C.ar  410  TYR410      0.0417
    137  CZ         5.2010   10.2260   54.8900 C.ar  410  TYR410      0.1957
    138  OH         4.5920    9.3260   54.0500 O.3   410  TYR410     -0.2866
@<TRIPOS>BOND
     1   113   114    1
     2   114   115    1
     3   114   117    1
     4   115   116    2
     5   119   121   ar
     6   119   118   ar
     7   117   118    1
     8   121   122   ar
     9   118   120   ar
    10   122   120   ar
    11   122   124   ar
    12   120   123   ar
    13   103   102    1
    14   124   126   ar
    15   102   101    1
    16   123   125   ar
    17   126   125   ar
    18   101   100    1
    19   104   105    1
    20   105   106    1
    21   105   108    1
    22     4     3    2
    23     1     2    1
    24     3     2    1
    25   107   106    2
    26   138   137    1
    27   100    97    1
    28     2     5    1
    29   136   137   ar
    30   136   134   ar
    31   109   108    1
    32   109   110    1
    33    98    99    2
    34    98    97    1
    35   137   135   ar
    36    97    96    1
    37   134   132   ar
    38   110   111   ar
    39   110   112   ar
    40     5     6    1
    41   135   133   ar
    42    96    86   am
    43   132   133   ar
    44   132   131    1
    45    86    87    2
    46    86    85    1
    47   131   128    1
    48    90    92   ar
    49    90    89   ar
    50    26    24    1
    51   127   128    1
    52    92    94   ar
    53    85    88    1
    54    85    84    1
    55    88    89    1
    56   128   129    1
    57    89    91   ar
    58    73    72    2
    59   129   130    2
    60    78    76   ar
    61    78    79   ar
    62    24    25    1
    63    24    23    2
    64    94    95    1
    65    94    93   ar
    66    76    75   ar
    67    84    72   am
    68    91    93   ar
    69    72    71    1
    70    14    13    2
    71    23    22    1
    72    79    81   ar
    73    79    77   ar
    74    81    83   ar
    75    40    38    1
    76    47    46    2
    77    75    77   ar
    78    75    74    1
    79    13    15   am
    80    13    12    1
    81    31    32    1
    82    31    28    1
    83    48    46   am
    84    59    57   ar
    85    59    58   ar
    86    71    74    1
    87    71    70    1
    88    77    80   ar
    89    39    38    1
    90    57    55   ar
    91    32    33    1
    92    46    45    1
    93    70    68   am
    94    83    82   ar
    95    22    21    1
    96    38    35    1
    97    12    11    1
    98    28    27    1
    99    28    29    1
   100    58    56   ar
   101    33    27    1
   102    80    82   ar
   103    55    54   ar
   104    21    20    1
   105    44    43    2
   106    68    67    1
   107    68    69    2
   108    45    42    1
   109    35    34    1
   110    35    36    1
   111    67    66    1
   112    43    42    1
   113    29    30    2
   114    11     8    1
   115    66    62   am
   116    20    17    1
   117    56    54   ar
   118    42    41    1
   119    54    53    1
   120     7     8    1
   121    36    37    2
   122    17    18    1
   123    17    16    1
   124     8     9    1
   125    18    19    2
   126    62    61    1
   127    62    63    2
   128    52    51    2
   129    61    60    1
   130    61    64    1
   131    53    50    1
   132    51    60   am
   133    51    50    1
   134     9    10    2
   135    64    65    1
   136    50    49    1
