@<TRIPOS>MOLECULE
tmp/1qwfA00.pdb
 175 176 0 0 0
SMALL
GASTEIGER

@<TRIPOS>ATOM
      1  N         48.8030    4.5240   -5.8550 N.3     5  LEU5       -0.1231
      2  CA        48.6050    4.8980   -7.2860 C.3     5  LEU5        0.1693
      3  C         48.4600    3.6310   -8.1240 C.2     5  LEU5        0.2592
      4  O         47.7550    3.6060   -9.1130 O.2     5  LEU5       -0.2718
      5  CB        49.8200    5.6880   -7.7780 C.3     5  LEU5        0.0284
      6  CG        49.8580    7.0530   -7.0910 C.3     5  LEU5        0.0019
      7  CD1       51.2570    7.6540   -7.2310 C.3     5  LEU5        0.0001
      8  CD2       48.8360    7.9830   -7.7490 C.3     5  LEU5        0.0001
      9  N         49.1220    2.5750   -7.7360 N.am    6  TYR6       -0.1976
     10  CA        49.0120    1.3120   -8.5210 C.3     6  TYR6        0.1639
     11  C         49.1550    0.1050   -7.5960 C.2     6  TYR6        0.2290
     12  O         49.4360    0.2350   -6.4210 O.2     6  TYR6       -0.2864
     13  CB        50.1220    1.2520   -9.5740 C.3     6  TYR6        0.0560
     14  CG        50.5650    2.6450   -9.9450 C.ar    6  TYR6       -0.0198
     15  CD1       49.7460    3.4480  -10.7420 C.ar    6  TYR6       -0.0009
     16  CD2       51.8040    3.1250   -9.5040 C.ar    6  TYR6       -0.0009
     17  CE1       50.1630    4.7340  -11.0990 C.ar    6  TYR6        0.0417
     18  CE2       52.2240    4.4110   -9.8600 C.ar    6  TYR6        0.0417
     19  CZ        51.4030    5.2160  -10.6590 C.ar    6  TYR6        0.1957
     20  OH        51.8150    6.4850  -11.0130 O.3     6  TYR6       -0.2866
     21  N         51.1020   -2.6610   -5.9320 N.3     8  TYR8       -0.1241
     22  CA        52.5530   -2.9320   -5.7540 C.3     8  TYR8        0.1605
     23  C         52.7780   -4.4170   -5.4780 C.2     8  TYR8        0.2264
     24  O         52.1810   -4.9920   -4.5910 O.2     8  TYR8       -0.2867
     25  CB        53.1010   -2.0950   -4.5990 C.3     8  TYR8        0.0534
     26  CG        54.4600   -2.5910   -4.1990 C.ar    8  TYR8       -0.0201
     27  CD1       55.4740   -2.6260   -5.1480 C.ar    8  TYR8       -0.0009
     28  CD2       54.7050   -3.0000   -2.8870 C.ar    8  TYR8       -0.0009
     29  CE1       56.7500   -3.0800   -4.7950 C.ar    8  TYR8        0.0417
     30  CE2       55.9780   -3.4540   -2.5260 C.ar    8  TYR8        0.0417
     31  CZ        57.0010   -3.4960   -3.4810 C.ar    8  TYR8        0.1957
     32  OH        58.2570   -3.9460   -3.1270 O.3     8  TYR8       -0.2866
     33  N         58.0500   -8.6110   -2.8020 N.3    11  ARG11      -0.1231
     34  CA        58.8570   -9.8150   -3.1480 C.3    11  ARG11       0.1694
     35  C         59.4700  -10.4020   -1.8740 C.2    11  ARG11       0.2592
     36  O         60.2800  -11.3070   -1.9240 O.2    11  ARG11      -0.2718
     37  CB        59.9740   -9.4190   -4.1160 C.3    11  ARG11       0.0321
     38  CG        59.3700   -9.0850   -5.4820 C.3    11  ARG11       0.0489
     39  CD        60.3380   -8.1940   -6.2640 C.3    11  ARG11       0.2205
     40  NE        60.8280   -8.9280   -7.4650 N.pl3  11  ARG11      -0.0865
     41  CZ        61.8930   -8.5130   -8.0980 C.cat  11  ARG11       0.5346
     42  NH1       62.5350   -7.4550   -7.6800 N.pl3  11  ARG11       0.1354
     43  NH2       62.3170   -9.1580   -9.1500 N.pl3  11  ARG11       0.1354
     44  N         59.0900   -9.8960   -0.7330 N.am   12  THR12      -0.1953
     45  CA        59.6510  -10.4280    0.5410 C.3    12  THR12       0.1897
     46  C         58.6360  -10.2250    1.6680 C.2    12  THR12       0.2313
     47  O         57.6100   -9.5990    1.4880 O.2    12  THR12      -0.2863
     48  CB        60.9470   -9.6840    0.8790 C.3    12  THR12       0.1794
     49  OG1       61.1230   -8.6060   -0.0290 O.3    12  THR12      -0.2208
     50  CG2       62.1320  -10.6450    0.7700 C.3    12  THR12       0.0378
     51  N         59.1260   -8.4710    4.1660 N.3    14  THR14      -0.1203
     52  CA        59.3300   -7.1010    4.7170 C.3    14  THR14       0.1994
     53  C         58.5210   -6.0940    3.8980 C.2    14  THR14       0.2617
     54  O         58.7290   -4.9010    3.9850 O.2    14  THR14      -0.2717
     55  CB        60.8150   -6.7390    4.6450 C.3    14  THR14       0.1784
     56  OG1       61.4260   -7.4640    3.5870 O.3    14  THR14      -0.2211
     57  CG2       61.4940   -7.0930    5.9680 C.3    14  THR14       0.0376
     58  N         57.6000   -6.5630    3.1010 N.am   15  ASP15      -0.1973
     59  CA        56.7860   -5.6240    2.2800 C.3    15  ASP15       0.1709
     60  C         55.4430   -6.2690    1.9350 C.2    15  ASP15       0.2293
     61  O         55.3300   -7.4740    1.8290 O.2    15  ASP15      -0.2864
     62  CB        57.5380   -5.2890    0.9900 C.3    15  ASP15       0.1436
     63  CG        59.0380   -5.2060    1.2800 C.2    15  ASP15       0.3671
     64  OD1       59.6740   -6.2470    1.3080 O.co2  15  ASP15      -0.2456
     65  OD2       59.5240   -4.1040    1.4710 O.co2  15  ASP15      -0.2456
     66  N         55.7390    4.5090    9.1600 N.3    28  ASN28      -0.1240
     67  CA        56.9790    5.3300    9.2090 C.3    28  ASN28       0.1653
     68  C         57.3380    5.7680    7.7890 C.2    28  ASN28       0.2266
     69  O         57.6450    4.9540    6.9390 O.2    28  ASN28      -0.2867
     70  CB        58.1220    4.4990    9.7950 C.3    28  ASN28       0.1155
     71  CG        58.6280    5.1580   11.0800 C.2    28  ASN28       0.2627
     72  OD1       58.5640    6.3630   11.2230 O.2    28  ASN28      -0.2716
     73  ND2       59.1310    4.4140   12.0260 N.am   28  ASN28      -0.0877
     74  N         61.9220    7.2580    7.1380 N.3    31  GLU31      -0.1231
     75  CA        63.1470    6.4170    7.0460 C.3    31  GLU31       0.1699
     76  C         63.6250    6.3670    5.5960 C.2    31  GLU31       0.2593
     77  O         64.6590    6.9060    5.2530 O.2    31  GLU31      -0.2718
     78  CB        62.8300    4.9990    7.5260 C.3    31  GLU31       0.0402
     79  CG        63.9500    4.5090    8.4450 C.3    31  GLU31       0.1161
     80  CD        64.0060    5.3900    9.6950 C.2    31  GLU31       0.3649
     81  OE1       63.0070    5.4600   10.3920 O.co2  31  GLU31      -0.2457
     82  OE2       65.0470    5.9790    9.9340 O.co2  31  GLU31      -0.2457
     83  N         62.8820    5.7230    4.7420 N.am   32  GLY32      -0.1942
     84  CA        63.2960    5.6360    3.3140 C.3    32  GLY32       0.2014
     85  C         62.0650    5.6960    2.4090 C.2    32  GLY32       0.2639
     86  O         60.9490    5.5020    2.8480 O.2    32  GLY32      -0.2714
     87  N         62.2600    5.9610    1.1440 N.am   33  ASP33      -0.1957
     88  CA        61.1030    6.0280    0.2080 C.3    33  ASP33       0.1840
     89  C         60.1650    4.8540    0.4880 C.2    33  ASP33       0.2622
     90  O         58.9750    4.9240    0.2510 O.2    33  ASP33      -0.2715
     91  CB        61.6060    5.9510   -1.2350 C.3    33  ASP33       0.1450
     92  CG        62.3140    7.2570   -1.5990 C.2    33  ASP33       0.3671
     93  OD1       63.4770    7.3940   -1.2540 O.co2  33  ASP33      -0.2456
     94  OD2       61.6820    8.0980   -2.2160 O.co2  33  ASP33      -0.2456
     95  N         60.6940    3.7780    0.9990 N.am   34  TRP34      -0.1960
     96  CA        59.8400    2.6000    1.3100 C.3    34  TRP34       0.1771
     97  C         59.2530    2.7750    2.7110 C.2    34  TRP34       0.2620
     98  O         59.8760    2.4520    3.7010 O.2    34  TRP34      -0.2715
     99  CB        60.6900    1.3290    1.2510 C.3    34  TRP34       0.0590
    100  CG        60.9990    1.0170   -0.1770 C.ar   34  TRP34       0.0006
    101  CD1       61.9630    1.6120   -0.9170 C.ar   34  TRP34       0.0946
    102  CD2       60.3520    0.0510   -1.0480 C.ar   34  TRP34       0.0152
    103  NE1       61.9450    1.0720   -2.1920 N.ar   34  TRP34      -0.2442
    104  CE2       60.9660    0.1040   -2.3220 C.ar   34  TRP34       0.0810
    105  CE3       59.2990   -0.8550   -0.8530 C.ar   34  TRP34       0.0012
    106  CZ2       60.5440   -0.7200   -3.3710 C.ar   34  TRP34       0.0191
    107  CZ3       58.8720   -1.6840   -1.9010 C.ar   34  TRP34       0.0001
    108  CH2       59.4920   -1.6160   -3.1590 C.ar   34  TRP34       0.0015
    109  N         58.0620    3.3000    2.8000 N.am   35  TRP35      -0.1960
    110  CA        57.4360    3.5180    4.1360 C.3    35  TRP35       0.1771
    111  C         56.7600    2.2340    4.6100 C.2    35  TRP35       0.2619
    112  O         56.4330    1.3670    3.8280 O.2    35  TRP35      -0.2715
    113  CB        56.4000    4.6310    4.0220 C.3    35  TRP35       0.0590
    114  CG        57.0070    5.7840    3.2950 C.ar   35  TRP35       0.0006
    115  CD1       58.3190    6.1150    3.3130 C.ar   35  TRP35       0.0946
    116  CD2       56.3500    6.7560    2.4430 C.ar   35  TRP35       0.0152
    117  NE1       58.5060    7.2380    2.5270 N.ar   35  TRP35      -0.2442
    118  CE2       57.3190    7.6700    1.9670 C.ar   35  TRP35       0.0810
    119  CE3       55.0170    6.9290    2.0460 C.ar   35  TRP35       0.0012
    120  CZ2       56.9720    8.7240    1.1200 C.ar   35  TRP35       0.0191
    121  CZ3       54.6610    7.9860    1.1930 C.ar   35  TRP35       0.0001
    122  CH2       55.6380    8.8830    0.7310 C.ar   35  TRP35       0.0015
    123  N         56.5500    2.1050    5.8870 N.am   36  LEU36      -0.1977
    124  CA        55.8990    0.8730    6.4080 C.3    36  LEU36       0.1596
    125  C         54.3890    1.0690    6.4650 C.2    36  LEU36       0.2287
    126  O         53.8950    1.9030    7.1900 O.2    36  LEU36      -0.2864
    127  CB        56.4250    0.5690    7.8040 C.3    36  LEU36       0.0297
    128  CG        56.1430   -0.8930    8.1310 C.3    36  LEU36       0.0022
    129  CD1       56.8170   -1.7900    7.0900 C.3    36  LEU36       0.0001
    130  CD2       56.7040   -1.2090    9.5100 C.3    36  LEU36       0.0001
    131  N         56.1830   -3.1040    4.2020 N.3    47  TYR47      -0.1241
    132  CA        56.6800   -1.8090    3.6790 C.3    47  TYR47       0.1605
    133  C         55.9610   -1.5000    2.3690 C.2    47  TYR47       0.2264
    134  O         55.1500   -2.2740    1.8990 O.2    47  TYR47      -0.2867
    135  CB        58.1870   -1.8840    3.4420 C.3    47  TYR47       0.0534
    136  CG        58.9080   -1.2980    4.6300 C.ar   47  TYR47      -0.0201
    137  CD1       58.9610    0.0890    4.8040 C.ar   47  TYR47      -0.0009
    138  CD2       59.5280   -2.1420    5.5570 C.ar   47  TYR47      -0.0009
    139  CE1       59.6360    0.6310    5.9030 C.ar   47  TYR47       0.0417
    140  CE2       60.2030   -1.6020    6.6560 C.ar   47  TYR47       0.0417
    141  CZ        60.2590   -0.2140    6.8290 C.ar   47  TYR47       0.1957
    142  OH        60.9250    0.3210    7.9120 O.3    47  TYR47      -0.2866
    143  N         56.3890    0.9790   -1.5170 N.3    49  PRO49      -0.2102
    144  CA        57.1050    1.9550   -2.3550 C.3    49  PRO49       0.1504
    145  C         56.3160    3.2690   -2.4180 C.2    49  PRO49       0.2576
    146  O         55.1690    3.2980   -2.8160 O.2    49  PRO49      -0.2718
    147  CB        57.1850    1.2680   -3.7210 C.3    49  PRO49       0.0282
    148  CG        56.0610    0.2060   -3.7460 C.3    49  PRO49       0.0208
    149  CD        55.7070   -0.0930   -2.2780 C.3    49  PRO49       0.0893
    150  N         56.9220    4.3510   -2.0030 N.am   50  SER50      -0.1938
    151  CA        56.2150    5.6640   -2.0090 C.3    50  SER50       0.2055
    152  C         55.8770    6.0910   -3.4400 C.2    50  SER50       0.2643
    153  O         54.8900    6.7590   -3.6750 O.2    50  SER50      -0.2714
    154  CB        57.1160    6.7180   -1.3670 C.3    50  SER50       0.2130
    155  OG        58.4680    6.4570   -1.7200 O.3    50  SER50      -0.2179
    156  N         56.6830    5.7280   -4.3980 N.am   51  ASN51      -0.1957
    157  CA        56.3920    6.1330   -5.7980 C.3    51  ASN51       0.1819
    158  C         55.1470    5.3940   -6.3000 C.2    51  ASN51       0.2621
    159  O         54.6480    5.6610   -7.3750 O.2    51  ASN51      -0.2715
    160  CB        57.5950    5.7970   -6.6810 C.3    51  ASN51       0.1195
    161  CG        57.8290    4.2870   -6.6910 C.2    51  ASN51       0.2630
    162  OD1       57.3660    3.5820   -5.8180 O.2    51  ASN51      -0.2716
    163  ND2       58.5340    3.7580   -7.6530 N.am   51  ASN51      -0.0877
    164  N         54.6360    4.4740   -5.5260 N.am   52  TYR52      -0.1974
    165  CA        53.4180    3.7240   -5.9520 C.3    52  TYR52       0.1639
    166  C         52.2160    4.1900   -5.1260 C.2    52  TYR52       0.2290
    167  O         51.0940    3.7760   -5.3630 O.2    52  TYR52      -0.2864
    168  CB        53.6340    2.2280   -5.7260 C.3    52  TYR52       0.0560
    169  CG        54.0380    1.5750   -7.0250 C.ar   52  TYR52      -0.0198
    170  CD1       55.2150    1.9700   -7.6660 C.ar   52  TYR52      -0.0009
    171  CD2       53.2350    0.5740   -7.5880 C.ar   52  TYR52      -0.0009
    172  CE1       55.5920    1.3670   -8.8700 C.ar   52  TYR52       0.0417
    173  CE2       53.6130   -0.0290   -8.7940 C.ar   52  TYR52       0.0417
    174  CZ        54.7920    0.3680   -9.4350 C.ar   52  TYR52       0.1957
    175  OH        55.1650   -0.2250  -10.6240 O.3    52  TYR52      -0.2866
@<TRIPOS>BOND
     1    17    15   ar
     2    17    19   ar
     3    20    19    1
     4    15    14   ar
     5    19    18   ar
     6   175   174    1
     7    14    13    1
     8    14    16   ar
     9    18    16   ar
    10    13    10    1
    11   174   172   ar
    12   174   173   ar
    13    43    41    1
    14     4     3    2
    15   172   170   ar
    16   173   171   ar
    17    10     9    1
    18    10    11    1
    19     3     9   am
    20     3     2    1
    21    41    42    1
    22    41    40    2
    23     5     2    1
    24     5     6    1
    25     8     6    1
    26   170   169   ar
    27   163   161   am
    28    11    12    2
    29   171   169   ar
    30    40    39    1
    31   159   158    2
    32     2     1    1
    33     7     6    1
    34   169   168    1
    35   161   160    1
    36   161   162    2
    37   160   157    1
    38   158   157    1
    39   158   164   am
    40    39    38    1
    41   165   168    1
    42   165   164    1
    43   165   166    1
    44    21    22    1
    45   157   156    1
    46    22    23    1
    47    22    25    1
    48    38    37    1
    49    23    24    2
    50   167   166    2
    51    27    29   ar
    52    27    26   ar
    53    29    31   ar
    54    25    26    1
    55   156   152   am
    56    26    28   ar
    57    37    34    1
    58   148   147    1
    59   148   149    1
    60   147   144    1
    61   153   152    2
    62    31    32    1
    63    31    30   ar
    64   152   151    1
    65   106   108   ar
    66   106   104   ar
    67   108   107   ar
    68    34    33    1
    69    34    35    1
    70    28    30   ar
    71   146   145    2
    72   145   144    1
    73   145   150   am
    74   144   143    1
    75   104   103   ar
    76   104   102   ar
    77   149   143    1
    78    94    92   ar
    79   103   101   ar
    80   151   150    1
    81   151   154    1
    82    36    35    2
    83   107   105   ar
    84    35    44   am
    85   155   154    1
    86    92    93   ar
    87    92    91    1
    88    91    88    1
    89   102   105   ar
    90   102   100   ar
    91   101   100   ar
    92    44    45    1
    93   100    99    1
    94    49    48    1
    95    88    89    1
    96    88    87    1
    97    90    89    2
    98    89    95   am
    99    45    48    1
   100    45    46    1
   101   122   120   ar
   102   122   121   ar
   103    50    48    1
   104    62    63    1
   105    62    59    1
   106    95    96    1
   107   120   118   ar
   108    87    85   am
   109   121   119   ar
   110    99    96    1
   111    63    64   ar
   112    63    65   ar
   113    96    97    1
   114    47    46    2
   115    61    60    2
   116   134   133    2
   117    60    59    1
   118   118   116   ar
   119   118   117   ar
   120   119   116   ar
   121    59    58    1
   122   133   132    1
   123    85    86    2
   124    85    84    1
   125   116   114   ar
   126   117   115   ar
   127    97   109   am
   128    97    98    2
   129   109   110    1
   130    58    53   am
   131   114   115   ar
   132   114   113    1
   133    84    83    1
   134   135   132    1
   135   135   136    1
   136    56    55    1
   137   132   131    1
   138   112   111    2
   139    53    54    2
   140    53    52    1
   141   113   110    1
   142   110   111    1
   143    51    52    1
   144   111   123   am
   145   136   137   ar
   146   136   138   ar
   147    55    52    1
   148    55    57    1
   149    83    76   am
   150   137   139   ar
   151    77    76    2
   152   138   140   ar
   153    76    75    1
   154   123   124    1
   155   139   141   ar
   156   124   125    1
   157   124   127    1
   158   125   126    2
   159   140   141   ar
   160   141   142    1
   161    69    68    2
   162    75    74    1
   163    75    78    1
   164   129   128    1
   165    78    79    1
   166    68    67    1
   167   127   128    1
   168   128   130    1
   169    79    80    1
   170    66    67    1
   171    67    70    1
   172    80    82   ar
   173    80    81   ar
   174    70    71    1
   175    71    72    2
   176    71    73   am
