@<TRIPOS>MOLECULE
tmp/1qwjC00.pdb
 180 166 0 0 0
SMALL
GASTEIGER

@<TRIPOS>ATOM
      1  N        106.5790  -13.8830   50.4930 N.3     9  LEU9       -0.1245
      2  CA       105.6880  -15.0150   50.7080 C.3     9  LEU9        0.1561
      3  C        104.6900  -15.0250   49.5690 C.2     9  LEU9        0.2260
      4  O        103.9240  -14.0770   49.4040 O.2     9  LEU9       -0.2867
      5  CB       104.9750  -14.8550   52.0630 C.3     9  LEU9        0.0270
      6  CG       105.9480  -14.5670   53.2380 C.3     9  LEU9        0.0019
      7  CD1      105.2010  -13.9950   54.4370 C.3     9  LEU9        0.0001
      8  CD2      106.6970  -15.8340   53.6160 C.3     9  LEU9        0.0001
      9  N        101.9950  -17.6130   48.4150 N.3    11  ARG11      -0.1245
     10  CA       101.2050  -18.8380   48.5080 C.3    11  ARG11       0.1563
     11  C        100.4340  -19.0270   47.2050 C.2    11  ARG11       0.2260
     12  O        100.6040  -18.2590   46.2620 O.2    11  ARG11      -0.2867
     13  CB       100.2100  -18.7460   49.6630 C.3    11  ARG11       0.0307
     14  CG        99.1500  -17.6680   49.4760 C.3    11  ARG11       0.0489
     15  CD        97.9040  -18.0400   50.2270 C.3    11  ARG11       0.2205
     16  NE        98.2080  -18.4240   51.6000 N.pl3  11  ARG11      -0.0865
     17  CZ        97.3920  -19.1260   52.3800 C.cat  11  ARG11       0.5346
     18  NH1       96.2100  -19.5270   51.9240 N.pl3  11  ARG11       0.1354
     19  NH2       97.7650  -19.4330   53.6150 N.pl3  11  ARG11       0.1354
     20  N         94.5060  -18.1010   49.4520 N.3    14  SER14      -0.1202
     21  CA        94.0070  -16.8670   50.0530 C.3    14  SER14       0.2020
     22  C         92.9270  -16.2300   49.1790 C.2    14  SER14       0.2618
     23  O         92.5540  -16.7810   48.1440 O.2    14  SER14      -0.2717
     24  CB        95.1590  -15.8820   50.2640 C.3    14  SER14       0.2103
     25  OG        94.7200  -14.7240   50.9510 O.3    14  SER14      -0.2182
     26  N         92.4250  -15.0710   49.5990 N.am   15  LYS15      -0.1979
     27  CA        91.3880  -14.3750   48.8440 C.3    15  LYS15       0.1596
     28  C         91.9780  -13.6800   47.6220 C.2    15  LYS15       0.2287
     29  O         92.2680  -12.4820   47.6540 O.2    15  LYS15      -0.2864
     30  CB        90.6780  -13.3470   49.7310 C.3    15  LYS15       0.0298
     31  CG        89.4840  -12.6740   49.0620 C.3    15  LYS15       0.0038
     32  CD        88.8050  -11.6740   49.9870 C.3    15  LYS15       0.0206
     33  CE        89.7110  -10.4920   50.2940 C.3    15  LYS15       0.1093
     34  NZ        90.0650   -9.7310   49.0640 N.3    15  LYS15      -0.1314
     35  N         97.5470  -15.5110   41.6300 N.3    20  LYS20      -0.1231
     36  CA        97.7170  -14.0980   41.3370 C.3    20  LYS20       0.1693
     37  C         99.1390  -13.6250   41.6010 C.2    20  LYS20       0.2592
     38  O         99.5290  -12.5470   41.1580 O.2    20  LYS20      -0.2718
     39  CB        96.7660  -13.2530   42.1870 C.3    20  LYS20       0.0285
     40  CG        97.3030  -12.9900   43.5710 C.3    20  LYS20       0.0035
     41  CD        96.5600  -11.8550   44.2480 C.3    20  LYS20       0.0206
     42  CE        97.4350  -11.1940   45.3030 C.3    20  LYS20       0.1093
     43  NZ        98.1430  -12.1640   46.1890 N.3    20  LYS20      -0.1314
     44  N         99.9090  -14.4070   42.3490 N.am   21  ASN21      -0.1974
     45  CA       101.2820  -14.0150   42.6560 C.3    21  ASN21       0.1688
     46  C        102.1780  -14.0920   41.4320 C.2    21  ASN21       0.2292
     47  O        103.2280  -13.4600   41.3930 O.2    21  ASN21      -0.2864
     48  CB       101.8330  -14.8710   43.7940 C.3    21  ASN21       0.1181
     49  CG       101.4080  -14.3590   45.1500 C.2    21  ASN21       0.2629
     50  OD1      101.4330  -15.0870   46.1380 O.2    21  ASN21      -0.2716
     51  ND2      101.0200  -13.0920   45.2050 N.am   21  ASN21      -0.0877
     52  N        107.4080  -23.8790   51.1190 N.3    70  ARG70      -0.1245
     53  CA       106.7100  -23.7390   52.3920 C.3    70  ARG70       0.1563
     54  C        105.9300  -24.9890   52.7560 C.2    70  ARG70       0.2260
     55  O        105.2690  -25.5930   51.9140 O.2    70  ARG70      -0.2867
     56  CB       105.7620  -22.5340   52.3340 C.3    70  ARG70       0.0307
     57  CG       105.0300  -22.2460   53.6380 C.3    70  ARG70       0.0489
     58  CD       103.8950  -21.2450   53.4380 C.3    70  ARG70       0.2205
     59  NE       104.3490  -19.9960   52.8320 N.pl3  70  ARG70      -0.0865
     60  CZ       103.5470  -18.9920   52.4880 C.cat  70  ARG70       0.5346
     61  NH1      104.0560  -17.8960   51.9420 N.pl3  70  ARG70       0.1354
     62  NH2      102.2370  -19.0800   52.6850 N.pl3  70  ARG70       0.1354
     63  N         94.7920  -21.1520   54.7070 N.3    77  ASP77      -0.1239
     64  CA        94.2810  -19.7880   54.5850 C.3    77  ASP77       0.1674
     65  C         94.4050  -19.0300   55.9070 C.2    77  ASP77       0.2266
     66  O         94.5800  -17.8090   55.9200 O.2    77  ASP77      -0.2867
     67  CB        92.8130  -19.8290   54.1450 C.3    77  ASP77       0.1410
     68  CG        92.3230  -18.4980   53.6080 C.2    77  ASP77       0.3668
     69  OD1       91.1060  -18.3780   53.3590 O.co2  77  ASP77      -0.2456
     70  OD2       93.1480  -17.5770   53.4290 O.co2  77  ASP77      -0.2456
     71  N         96.8160  -19.0650   58.0180 N.3    79  SER79      -0.1202
     72  CA        98.2160  -19.0170   58.4290 C.3    79  SER79       0.2020
     73  C         98.7100  -17.5800   58.3480 C.2    79  SER79       0.2619
     74  O         98.7080  -16.9790   57.2730 O.2    79  SER79      -0.2717
     75  CB        99.0680  -19.9020   57.5190 C.3    79  SER79       0.2103
     76  OG        99.0940  -19.3920   56.1970 O.3    79  SER79      -0.2182
     77  N         99.1370  -17.0340   59.4820 N.am   80  THR80      -0.1938
     78  CA        99.6260  -15.6610   59.5300 C.3    80  THR80       0.2028
     79  C        100.9280  -15.5160   58.7530 C.2    80  THR80       0.2642
     80  O        101.5240  -16.5050   58.3230 O.2    80  THR80      -0.2714
     81  CB        99.8880  -15.2110   60.9730 C.3    80  THR80       0.1808
     82  OG1       99.0550  -15.9600   61.8610 O.3    80  THR80      -0.2208
     83  CG2       99.5660  -13.7390   61.1360 C.3    80  THR80       0.0379
     84  N        101.3730  -14.2800   58.5750 N.am   81  SER81      -0.1949
     85  CA       102.6110  -14.0400   57.8570 C.3    81  SER81       0.1924
     86  C        103.7880  -14.3710   58.7670 C.2    81  SER81       0.2314
     87  O        104.8180  -14.8640   58.3110 O.2    81  SER81      -0.2863
     88  CB       102.6870  -12.5800   57.4070 C.3    81  SER81       0.2116
     89  OG       103.7940  -12.3600   56.5460 O.3    81  SER81      -0.2180
     90  N        104.5310  -17.9250   58.6160 N.3    84  ALA84      -0.1245
     91  CA       105.2970  -18.1900   57.4160 C.3    84  ALA84       0.1562
     92  C        106.7490  -17.7630   57.5970 C.2    84  ALA84       0.2260
     93  O        107.6590  -18.5480   57.3230 O.2    84  ALA84      -0.2867
     94  CB       104.6720  -17.4720   56.2350 C.3    84  ALA84       0.0290
     95  N        110.6970   -8.7770   54.9460 N.3   100  ASN100     -0.1240
     96  CA       109.4550   -9.2930   54.3970 C.3   100  ASN100      0.1653
     97  C        108.8250   -8.2890   53.4510 C.2   100  ASN100      0.2266
     98  O        108.3770   -7.2220   53.8800 O.2   100  ASN100     -0.2867
     99  CB       108.4620   -9.6220   55.5100 C.3   100  ASN100      0.1155
    100  CG       107.2220  -10.3210   54.9880 C.2   100  ASN100      0.2627
    101  OD1      106.1120  -10.0980   55.4840 O.2   100  ASN100     -0.2716
    102  ND2      107.4010  -11.1740   53.9900 N.am  100  ASN100     -0.0877
    103  N        105.8910   -7.6510   50.4340 N.3   102  GLN102     -0.1231
    104  CA       104.6500   -8.1620   49.8770 C.3   102  GLN102      0.1698
    105  C        104.5550   -7.8720   48.3980 C.2   102  GLN102      0.2592
    106  O        104.7570   -6.7320   47.9680 O.2   102  GLN102     -0.2718
    107  CB       103.4560   -7.5450   50.6010 C.3   102  GLN102      0.0381
    108  CG       103.4490   -7.8500   52.0960 C.3   102  GLN102      0.0905
    109  CD       102.1710   -7.4250   52.7890 C.2   102  GLN102      0.2608
    110  OE1      102.0200   -7.5940   54.0000 O.2   102  GLN102     -0.2717
    111  NE2      101.2450   -6.8720   52.0240 N.am  102  GLN102     -0.0878
    112  N        104.2490   -8.9050   47.6190 N.am  103  ALA103     -0.1966
    113  CA       104.1410   -8.7590   46.1710 C.3   103  ALA103      0.1728
    114  C        102.9300   -7.9130   45.7570 C.2   103  ALA103      0.2616
    115  O        102.8460   -7.4420   44.6200 O.2   103  ALA103     -0.2715
    116  CB       104.0800  -10.1350   45.5260 C.3   103  ALA103      0.0334
    117  N        101.9990   -7.7090   46.6830 N.am  104  THR104     -0.1951
    118  CA       100.8210   -6.9130   46.3820 C.3   104  THR104      0.1897
    119  C        101.1010   -5.4020   46.3600 C.2   104  THR104      0.2313
    120  O        100.1790   -4.6030   46.2790 O.2   104  THR104     -0.2863
    121  CB        99.6890   -7.2230   47.3790 C.3   104  THR104      0.1794
    122  OG1      100.2360   -7.3790   48.7010 O.3   104  THR104     -0.2208
    123  CG2       98.9650   -8.4980   46.9640 C.3   104  THR104      0.0378
    124  N        100.0610    1.7960   57.6840 N.3   172  GLU172     -0.1231
    125  CA       100.9840    0.8320   57.0640 C.3   172  GLU172      0.1699
    126  C        100.4790    0.7240   55.6400 C.2   172  GLU172      0.2592
    127  O         99.2820    0.9020   55.4100 O.2   172  GLU172     -0.2718
    128  CB       100.8530   -0.5620   57.6930 C.3   172  GLU172      0.0402
    129  CG       101.1770   -0.6860   59.1710 C.3   172  GLU172      0.1161
    130  CD       100.9360   -2.0980   59.6790 C.2   172  GLU172      0.3649
    131  OE1      101.2000   -2.3680   60.8680 O.co2 172  GLU172     -0.2457
    132  OE2      100.4790   -2.9340   58.8730 O.co2 172  GLU172     -0.2457
    133  N        101.3600    0.4300   54.6860 N.am  173  ASN173     -0.1960
    134  CA       100.9140    0.2870   53.2890 C.3   173  ASN173      0.1819
    135  C        101.0270   -1.1540   52.7910 C.2   173  ASN173      0.2621
    136  O        100.5500   -1.4770   51.7080 O.2   173  ASN173     -0.2715
    137  CB       101.6910    1.2190   52.3450 C.3   173  ASN173      0.1195
    138  CG       103.1770    0.9780   52.3790 C.2   173  ASN173      0.2630
    139  OD1      103.6290   -0.1260   52.6820 O.2   173  ASN173     -0.2716
    140  ND2      103.9520    2.0060   52.0420 N.am  173  ASN173     -0.0877
    141  N        101.6610   -2.0060   53.5900 N.am  174  GLY174     -0.1954
    142  CA       101.7890   -3.3980   53.2260 C.3   174  GLY174      0.1869
    143  C        103.0480   -3.7210   52.4620 C.2   174  GLY174      0.2309
    144  O        103.4150   -4.8920   52.3140 O.2   174  GLY174     -0.2863
    145  N        108.1530   -5.2770   55.6740 N.3   177  TYR177     -0.1241
    146  CA       108.3310   -5.4190   57.1130 C.3   177  TYR177      0.1605
    147  C        109.6920   -6.0340   57.3920 C.2   177  TYR177      0.2264
    148  O        109.9250   -7.2090   57.1130 O.2   177  TYR177     -0.2867
    149  CB       107.2480   -6.3130   57.6960 C.3   177  TYR177      0.0534
    150  CG       105.8570   -5.7870   57.4800 C.ar  177  TYR177     -0.0201
    151  CD1      105.1430   -6.0900   56.3190 C.ar  177  TYR177     -0.0009
    152  CD2      105.2420   -5.0070   58.4480 C.ar  177  TYR177     -0.0009
    153  CE1      103.8350   -5.6260   56.1350 C.ar  177  TYR177      0.0417
    154  CE2      103.9440   -4.5380   58.2810 C.ar  177  TYR177      0.0417
    155  CZ       103.2410   -4.8490   57.1240 C.ar  177  TYR177      0.1957
    156  OH       101.9480   -4.3670   56.9810 O.3   177  TYR177     -0.2866
    157  N        106.9740   -8.8390   64.4210 N.3   189  LEU189     -0.1245
    158  CA       107.6740   -8.5260   63.1900 C.3   189  LEU189      0.1561
    159  C        108.0160   -7.0480   63.3680 C.2   189  LEU189      0.2260
    160  O        108.9180   -6.5110   62.7340 O.2   189  LEU189     -0.2867
    161  CB       106.7660   -8.7540   61.9800 C.3   189  LEU189      0.0270
    162  CG       105.2970   -8.3400   62.0770 C.3   189  LEU189      0.0019
    163  CD1      104.6490   -8.5200   60.7140 C.3   189  LEU189      0.0001
    164  CD2      104.5690   -9.1780   63.1310 C.3   189  LEU189      0.0001
    165  N         98.1780   -0.7700   47.3690 N.3   206  ASP206     -0.1239
    166  CA        97.9880   -2.2210   47.3220 C.3   206  ASP206      0.1674
    167  C         97.0070   -2.6170   46.2270 C.2   206  ASP206      0.2266
    168  O         96.0410   -1.9030   45.9620 O.2   206  ASP206     -0.2867
    169  CB        97.4850   -2.7220   48.6890 C.3   206  ASP206      0.1410
    170  CG        97.3590   -4.2410   48.7590 C.2   206  ASP206      0.3668
    171  OD1       97.6390   -4.8180   49.8360 O.co2 206  ASP206     -0.2456
    172  OD2       96.9710   -4.8610   47.7470 O.co2 206  ASP206     -0.2456
    173  N         94.6430   -4.6640   46.1230 N.3   208  ASP208     -0.1239
    174  CA        93.2670   -4.7110   46.5850 C.3   208  ASP208      0.1674
    175  C         92.6410   -3.3060   46.6500 C.2   208  ASP208      0.2266
    176  O         91.4170   -3.1610   46.6860 O.2   208  ASP208     -0.2867
    177  CB        93.2220   -5.4070   47.9490 C.3   208  ASP208      0.1410
    178  CG        94.1620   -6.6250   48.0170 C.2   208  ASP208      0.3668
    179  OD1       94.1550   -7.3440   49.0450 O.co2 208  ASP208     -0.2456
    180  OD2       94.9190   -6.8630   47.0440 O.co2 208  ASP208     -0.2456
@<TRIPOS>BOND
     1    38    37    2
     2    36    37    1
     3    36    35    1
     4    36    39    1
     5    47    46    2
     6    46    45    1
     7    37    44   am
     8    39    40    1
     9    44    45    1
    10    45    48    1
    11    40    41    1
    12    48    49    1
    13    41    42    1
    14   115   114    2
    15    49    51   am
    16    49    50    2
    17    42    43    1
    18   116   113    1
    19   114   113    1
    20   114   117   am
    21   168   167    2
    22   173   174    1
    23   113   112    1
    24   167   166    1
    25    12    11    2
    26   120   119    2
    27   119   118    1
    28   118   117    1
    29   118   121    1
    30   174   175    1
    31   174   177    1
    32   175   176    2
    33   123   121    1
    34   180   178   ar
    35    11    10    1
    36   166   165    1
    37   166   169    1
    38   121   122    1
    39   112   105   am
    40    28    29    2
    41    28    27    1
    42   172   170   ar
    43   177   178    1
    44   106   105    2
    45   178   179   ar
    46    23    22    2
    47   105   104    1
    48     9    10    1
    49    10    13    1
    50   169   170    1
    51   170   171   ar
    52    27    26    1
    53    27    30    1
    54    31    30    1
    55    31    32    1
    56    34    33    1
    57    22    26   am
    58    22    21    1
    59     4     3    2
    60    20    21    1
    61    14    13    1
    62    14    15    1
    63     3     2    1
    64   104   103    1
    65   104   107    1
    66    32    33    1
    67    21    24    1
    68    15    16    1
    69    24    25    1
    70     1     2    1
    71   107   108    1
    72     2     5    1
    73    52    53    1
    74    16    17    2
    75   136   135    2
    76    55    54    2
    77    18    17    1
    78    61    60    1
    79   111   109   am
    80   140   138   am
    81     5     6    1
    82   108   109    1
    83   144   143    2
    84    56    53    1
    85    56    57    1
    86   137   138    1
    87   137   134    1
    88   138   139    2
    89    17    19    1
    90    53    54    1
    91   143   142    1
    92    60    62    1
    93    60    59    2
    94   109   110    2
    95   135   134    1
    96   135   141   am
    97    59    58    1
    98   142   141    1
    99     6     8    1
   100     6     7    1
   101   134   133    1
   102    69    68   ar
   103    70    68   ar
   104    58    57    1
   105    97    98    2
   106    97    96    1
   107    68    67    1
   108   102   100   am
   109    67    64    1
   110    96    95    1
   111    96    99    1
   112    64    63    1
   113    64    65    1
   114   133   126   am
   115   100   101    2
   116   100    99    1
   117   127   126    2
   118   126   125    1
   119   145   146    1
   120    65    66    2
   121   153   151   ar
   122   153   155   ar
   123    76    75    1
   124    94    91    1
   125   151   150   ar
   126    89    88    1
   127   156   155    1
   128   125   124    1
   129   125   128    1
   130   148   147    2
   131   146   147    1
   132   146   149    1
   133   155   154   ar
   134    74    73    2
   135    93    92    2
   136    88    85    1
   137    91    92    1
   138    91    90    1
   139   150   149    1
   140   150   152   ar
   141    75    72    1
   142   128   129    1
   143    85    84    1
   144    85    86    1
   145    71    72    1
   146   154   152   ar
   147    87    86    2
   148    80    79    2
   149    73    72    1
   150    73    77   am
   151    84    79   am
   152    79    78    1
   153   132   130   ar
   154   129   130    1
   155    77    78    1
   156    78    81    1
   157   130   131   ar
   158   163   162    1
   159    81    83    1
   160    81    82    1
   161   161   162    1
   162   161   158    1
   163   162   164    1
   164   160   159    2
   165   158   159    1
   166   158   157    1
