@<TRIPOS>MOLECULE
tmp/1qx6A00.pdb
 133 127 0 0 0
SMALL
GASTEIGER

@<TRIPOS>ATOM
      1  N         24.2800   10.4400    7.8300 N.3    60  ASN60      -0.1240
      2  CA        23.6760   11.6640    8.3410 C.3    60  ASN60       0.1653
      3  C         23.7990   12.8460    7.3780 C.2    60  ASN60       0.2266
      4  O         23.5900   14.0010    7.7680 O.2    60  ASN60      -0.2867
      5  CB        24.2910   12.0320    9.6860 C.3    60  ASN60       0.1155
      6  CG        23.6020   11.3390   10.8410 C.2    60  ASN60       0.2627
      7  OD1       24.0460   11.4140   11.9940 O.2    60  ASN60      -0.2716
      8  ND2       22.5000   10.6580   10.5410 N.am   60  ASN60      -0.0877
      9  N         20.5340   15.5900    3.7590 N.3    64  LEU64      -0.1245
     10  CA        20.8930   16.9510    4.1040 C.3    64  LEU64       0.1561
     11  C         20.3630   17.9040    3.0240 C.2    64  LEU64       0.2260
     12  O         19.6850   18.8870    3.3100 O.2    64  LEU64      -0.2867
     13  CB        22.4110   17.0700    4.1850 C.3    64  LEU64       0.0270
     14  CG        22.9320   17.7890    5.4230 C.3    64  LEU64       0.0019
     15  CD1       24.2810   18.4360    5.1120 C.3    64  LEU64       0.0001
     16  CD2       21.9250   18.8360    5.8500 C.3    64  LEU64       0.0001
     17  N         15.4520   14.8330    8.8680 N.3    79  PHE79      -0.1241
     18  CA        15.9060   13.4520    8.8810 C.3    79  PHE79       0.1605
     19  C         16.4540   12.9640   10.2040 C.2    79  PHE79       0.2264
     20  O         17.1520   13.6910   10.9110 O.2    79  PHE79      -0.2867
     21  CB        16.9630   13.2440    7.8080 C.3    79  PHE79       0.0534
     22  CG        18.2250   14.0190    8.0300 C.ar   79  PHE79      -0.0203
     23  CD1       19.3470   13.4010    8.5740 C.ar   79  PHE79      -0.0042
     24  CD2       18.3150   15.3600    7.6570 C.ar   79  PHE79      -0.0042
     25  CE1       20.5550   14.1130    8.7390 C.ar   79  PHE79      -0.0003
     26  CE2       19.5180   16.0820    7.8220 C.ar   79  PHE79      -0.0003
     27  CZ        20.6320   15.4560    8.3610 C.ar   79  PHE79      -0.0000
     28  N         18.6990   10.5200   12.7360 N.3    80  ASP80      -0.1225
     29  CA        20.0880   10.0930   12.7590 C.3    80  ASP80       0.1805
     30  C         20.1460    8.6830   12.1980 C.2    80  ASP80       0.2598
     31  O         19.3200    7.8400   12.5450 O.2    80  ASP80      -0.2718
     32  CB        20.6150   10.1120   14.1900 C.3    80  ASP80       0.1424
     33  CG        22.1050    9.9120   14.2530 C.2    80  ASP80       0.3668
     34  OD1       22.5760    8.8250   13.8610 O.co2  80  ASP80      -0.2456
     35  OD2       22.8070   10.8450   14.6860 O.co2  80  ASP80      -0.2456
     36  N         21.1200    8.4220   11.3370 N.am   81  PHE81      -0.1962
     37  CA        21.2480    7.1080   10.7150 C.3    81  PHE81       0.1771
     38  C         21.4600    5.9860   11.7290 C.2    81  PHE81       0.2619
     39  O         21.3120    4.8050   11.4010 O.2    81  PHE81      -0.2715
     40  CB        22.3960    7.1170    9.6870 C.3    81  PHE81       0.0574
     41  CG        23.7790    6.9900   10.2930 C.ar   81  PHE81      -0.0200
     42  CD1       24.3370    5.7350   10.5310 C.ar   81  PHE81      -0.0042
     43  CD2       24.5200    8.1230   10.6220 C.ar   81  PHE81      -0.0042
     44  CE1       25.6120    5.6100   11.0850 C.ar   81  PHE81      -0.0003
     45  CE2       25.8010    8.0080   11.1790 C.ar   81  PHE81      -0.0003
     46  CZ        26.3430    6.7480   11.4080 C.ar   81  PHE81      -0.0000
     47  N         21.7970    6.3570   12.9610 N.am   82  ARG82      -0.1977
     48  CA        22.0420    5.3710   14.0060 C.3    82  ARG82       0.1597
     49  C         20.7880    4.9250   14.7090 C.2    82  ARG82       0.2287
     50  O         20.6860    3.7790   15.1240 O.2    82  ARG82      -0.2864
     51  CB        23.0110    5.9240   15.0540 C.3    82  ARG82       0.0334
     52  CG        24.4350    6.1140   14.5650 C.3    82  ARG82       0.0492
     53  CD        25.2440    6.8790   15.5920 C.3    82  ARG82       0.2205
     54  NE        24.6690    8.1940   15.8540 N.pl3  82  ARG82      -0.0865
     55  CZ        25.1020    9.0230   16.7970 C.cat  82  ARG82       0.5346
     56  NH1       26.1230    8.6700   17.5740 N.pl3  82  ARG82       0.1354
     57  NH2       24.5100   10.1990   16.9730 N.pl3  82  ARG82       0.1354
     58  N         17.2070   15.9470   12.6000 N.3    95  TYR95      -0.1241
     59  CA        17.8520   17.1710   12.1380 C.3    95  TYR95       0.1605
     60  C         17.0530   17.8180   11.0110 C.2    95  TYR95       0.2264
     61  O         16.2700   17.1500   10.3270 O.2    95  TYR95      -0.2867
     62  CB        19.2490   16.8760   11.6180 C.3    95  TYR95       0.0534
     63  CG        20.1030   15.9800   12.4880 C.ar   95  TYR95      -0.0201
     64  CD1       20.1200   14.5940   12.2890 C.ar   95  TYR95      -0.0009
     65  CD2       20.9760   16.5220   13.4510 C.ar   95  TYR95      -0.0009
     66  CE1       20.9970   13.7600   13.0130 C.ar   95  TYR95       0.0417
     67  CE2       21.8480   15.6960   14.1820 C.ar   95  TYR95       0.0417
     68  CZ        21.8480   14.3180   13.9450 C.ar   95  TYR95       0.1957
     69  OH        22.7050   13.5030   14.6200 O.3    95  TYR95      -0.2866
     70  N         29.1830   20.4940   18.8390 N.3   144  LYS144     -0.1231
     71  CA        28.6510   19.6780   17.7610 C.3   144  LYS144      0.1693
     72  C         28.3770   18.2610   18.2420 C.2   144  LYS144      0.2592
     73  O         27.7900   17.4330   17.3970 O.2   144  LYS144     -0.2718
     74  CB        29.6110   19.6840   16.5730 C.3   144  LYS144      0.0285
     75  CG        30.0910   21.0720   16.1780 C.3   144  LYS144      0.0035
     76  CD        29.1250   21.7390   15.2160 C.3   144  LYS144      0.0206
     77  CE        29.6120   23.1230   14.8170 C.3   144  LYS144      0.1093
     78  NZ        28.6720   23.7940   13.8780 N.3   144  LYS144     -0.1314
     79  N         28.7830   17.8860   19.4750 N.am  145  ASP145     -0.1974
     80  CA        28.5140   16.5560   20.0180 C.3   145  ASP145      0.1709
     81  C         27.7520   16.5710   21.3410 C.2   145  ASP145      0.2293
     82  O         27.0620   17.5370   21.6720 O.2   145  ASP145     -0.2864
     83  CB        29.8180   15.7660   20.2010 C.3   145  ASP145      0.1436
     84  CG        30.7130   16.3470   21.2830 C.2   145  ASP145      0.3671
     85  OD1       30.2250   16.5950   22.4060 O.co2 145  ASP145     -0.2456
     86  OD2       31.9140   16.5440   21.0150 O.co2 145  ASP145     -0.2456
     87  N         24.2220   14.6840   20.8040 N.3   148  ILE148     -0.1245
     88  CA        24.0600   13.7940   19.6540 C.3   148  ILE148      0.1561
     89  C         24.3390   12.3300   20.0730 C.2   148  ILE148      0.2260
     90  O         24.8560   11.5250   19.2920 O.2   148  ILE148     -0.2867
     91  CB        25.0380   14.2180   18.5200 C.3   148  ILE148      0.0252
     92  CG1       24.6580   15.6050   18.0000 C.3   148  ILE148      0.0019
     93  CG2       25.0080   13.2270   17.3720 C.3   148  ILE148      0.0019
     94  CD1       23.2970   15.6510   17.3380 C.3   148  ILE148      0.0001
     95  N         17.3680   19.0920   16.4070 N.3   186  SER186     -0.1202
     96  CA        18.4820   20.0040   16.2450 C.3   186  SER186      0.2020
     97  C         18.5220   20.6270   14.8720 C.2   186  SER186      0.2619
     98  O         18.2610   19.9410   13.9100 O.2   186  SER186     -0.2717
     99  CB        19.7810   19.2480   16.4810 C.3   186  SER186      0.2103
    100  OG        20.8950   20.0730   16.1980 O.3   186  SER186     -0.2182
    101  N         18.9510   21.7990   14.7900 N.am  187  THR187     -0.1938
    102  CA        19.0570   22.4440   13.4720 C.3   187  THR187      0.2028
    103  C         20.3580   21.9680   12.8190 C.2   187  THR187      0.2642
    104  O         21.2480   21.4310   13.4930 O.2   187  THR187     -0.2714
    105  CB        19.1320   23.9930   13.5340 C.3   187  THR187      0.1808
    106  OG1       20.2060   24.3880   14.3870 O.3   187  THR187     -0.2208
    107  CG2       17.8370   24.5820   14.0160 C.3   187  THR187      0.0379
    108  N         20.4770   22.2060   11.5170 N.am  188  CYS188     -0.1953
    109  CA        21.6380   21.7540   10.7570 C.3   188  CYS188      0.1843
    110  C         22.0270   22.7280    9.6540 C.2   188  CYS188      0.2625
    111  O         21.1690   23.2580    8.9500 O.2   188  CYS188     -0.2714
    112  CB        21.2550   20.4450   10.0770 C.3   188  CYS188      0.0997
    113  SG        22.3970   19.0430   10.1790 S.3   188  CYS188     -0.0797
    114  N         23.3220   22.9550    9.4900 N.am  189  GLU189     -0.1977
    115  CA        23.7930   23.8380    8.4360 C.3   189  GLU189      0.1602
    116  C         24.2870   22.8970    7.3440 C.2   189  GLU189      0.2287
    117  O         24.5200   21.7140    7.6140 O.2   189  GLU189     -0.2864
    118  CB        24.9510   24.7070    8.9370 C.3   189  GLU189      0.0415
    119  CG        25.1640   24.7080   10.4480 C.3   189  GLU189      0.1163
    120  CD        25.7580   23.4070   10.9780 C.2   189  GLU189      0.3649
    121  OE1       26.8270   22.9950   10.4840 O.co2 189  GLU189     -0.2457
    122  OE2       25.1630   22.8040   11.8960 O.co2 189  GLU189     -0.2457
    123  N         23.7660   26.6240   16.7720 N.3   198  ARG198     -0.1245
    124  CA        22.7420   25.5960   16.5740 C.3   198  ARG198      0.1563
    125  C         21.6420   25.7080   17.6240 C.2   198  ARG198      0.2260
    126  O         21.8900   26.1000   18.7740 O.2   198  ARG198     -0.2867
    127  CB        23.3290   24.1870   16.6590 C.3   198  ARG198      0.0307
    128  CG        23.9290   23.6760   15.3850 C.3   198  ARG198      0.0489
    129  CD        24.3910   22.2420   15.5570 C.3   198  ARG198      0.2205
    130  NE        25.4390   21.8840   14.6000 N.pl3 198  ARG198     -0.0865
    131  CZ        25.8820   20.6460   14.4050 C.cat 198  ARG198      0.5346
    132  NH1       25.3700   19.6420   15.1000 N.pl3 198  ARG198      0.1354
    133  NH2       26.8410   20.4150   13.5130 N.pl3 198  ARG198      0.1354
@<TRIPOS>BOND
     1    11    12    2
     2    11    10    1
     3     9    10    1
     4    10    13    1
     5    13    14    1
     6    15    14    1
     7    14    16    1
     8   116   117    2
     9   116   115    1
    10     3     4    2
    11     3     2    1
    12    24    26   ar
    13    24    22   ar
    14    21    22    1
    15    21    18    1
    16    26    27   ar
    17     1     2    1
    18    22    23   ar
    19     2     5    1
    20    27    25   ar
    21   115   118    1
    22   115   114    1
    23    23    25   ar
    24    17    18    1
    25    18    19    1
    26   118   119    1
    27   111   110    2
    28   114   110   am
    29   110   109    1
    30     5     6    1
    31    40    41    1
    32    40    37    1
    33   112   113    1
    34   112   109    1
    35    19    20    2
    36    41    42   ar
    37    41    43   ar
    38    61    60    2
    39   119   120    1
    40   121   120   ar
    41    42    44   ar
    42     8     6   am
    43    43    45   ar
    44    37    36    1
    45    37    38    1
    46   109   108    1
    47     6     7    2
    48   120   122   ar
    49    60    59    1
    50    44    46   ar
    51    45    46   ar
    52    36    30   am
    53    39    38    2
    54   108   103   am
    55    62    59    1
    56    62    63    1
    57    38    47   am
    58    59    58    1
    59    30    31    2
    60    30    29    1
    61    64    63   ar
    62    64    66   ar
    63    63    65   ar
    64    28    29    1
    65    29    32    1
    66   103   102    1
    67   103   104    2
    68    47    48    1
    69    66    68   ar
    70    65    67   ar
    71   102   105    1
    72   102   101    1
    73   133   131    1
    74   105   107    1
    75   105   106    1
    76    34    33   ar
    77    78    77    1
    78    98    97    2
    79    68    67   ar
    80    68    69    1
    81    48    49    1
    82    48    51    1
    83    32    33    1
    84    33    35   ar
    85   131   130    2
    86   131   132    1
    87    52    51    1
    88    52    53    1
    89   130   129    1
    90    49    50    2
    91   101    97   am
    92    77    76    1
    93    97    96    1
    94    76    75    1
    95   128   129    1
    96   128   127    1
    97    53    54    1
    98    54    55    2
    99    75    74    1
   100   100    99    1
   101    96    95    1
   102    96    99    1
   103    74    71    1
   104   124   127    1
   105   124   123    1
   106   124   125    1
   107    55    57    1
   108    55    56    1
   109    94    92    1
   110    93    91    1
   111    73    72    2
   112   125   126    2
   113    71    72    1
   114    71    70    1
   115    92    91    1
   116    72    79   am
   117    91    88    1
   118    90    89    2
   119    79    80    1
   120    88    89    1
   121    88    87    1
   122    80    83    1
   123    80    81    1
   124    83    84    1
   125    86    84   ar
   126    84    85   ar
   127    81    82    2
