@<TRIPOS>MOLECULE
tmp/1qxaA00.pdb
 91 87 0 0 0
SMALL
GASTEIGER

@<TRIPOS>ATOM
      1  N         24.2680   10.6160    7.8630 N.3    62  ASN62      -0.1240
      2  CA        23.6610   11.8680    8.2870 C.3    62  ASN62       0.1653
      3  C         23.8920   13.0430    7.3410 C.2    62  ASN62       0.2266
      4  O         23.7840   14.2020    7.7330 O.2    62  ASN62      -0.2867
      5  CB        24.1110   12.2350    9.6970 C.3    62  ASN62       0.1155
      6  CG        23.4220   11.4010   10.7470 C.2    62  ASN62       0.2627
      7  OD1       22.2460   11.0520   10.6010 O.2    62  ASN62      -0.2716
      8  ND2       24.1360   11.0850   11.8160 N.am   62  ASN62      -0.0877
      9  N         20.6410   15.7450    3.6260 N.3    66  LEU66      -0.1245
     10  CA        21.0370   17.1000    3.9820 C.3    66  LEU66       0.1561
     11  C         20.5210   18.0690    2.9180 C.2    66  LEU66       0.2260
     12  O         20.0070   19.1370    3.2340 O.2    66  LEU66      -0.2867
     13  CB        22.5550   17.1950    4.0590 C.3    66  LEU66       0.0270
     14  CG        23.1140   17.8670    5.3080 C.3    66  LEU66       0.0019
     15  CD1       24.5800   18.2030    5.0600 C.3    66  LEU66       0.0001
     16  CD2       22.3100   19.1280    5.6400 C.3    66  LEU66       0.0001
     17  N         28.6590   20.1120   19.2670 N.3   148  LYS148     -0.1245
     18  CA        27.9310   19.2150   18.3780 C.3   148  LYS148      0.1561
     19  C         28.3670   17.7730   18.5870 C.2   148  LYS148      0.2260
     20  O         28.3490   16.9640   17.6570 O.2   148  LYS148     -0.2867
     21  CB        28.1550   19.6350   16.9240 C.3   148  LYS148      0.0271
     22  CG        29.5890   19.9830   16.5820 C.3   148  LYS148      0.0035
     23  CD        29.6380   20.9590   15.4200 C.3   148  LYS148      0.0206
     24  CE        28.9780   22.2840   15.7900 C.3   148  LYS148      0.1093
     25  NZ        28.9500   23.2560   14.6550 N.3   148  LYS148     -0.1314
     26  N         20.3160   22.0820   11.7710 N.3   193  CYS193     -0.1221
     27  CA        21.4880   21.6400   11.0130 C.3   193  CYS193      0.1808
     28  C         21.8500   22.6370    9.9040 C.2   193  CYS193      0.2601
     29  O         20.9840   23.0790    9.1490 O.2   193  CYS193     -0.2717
     30  CB        21.2180   20.2580   10.4080 C.3   193  CYS193      0.0970
     31  SG        22.6960   19.2810   10.0640 S.3   193  CYS193     -0.0800
     32  N         23.1330   22.9880    9.8210 N.am  194  GLU194     -0.1965
     33  CA        23.6330   23.9250    8.8120 C.3   194  GLU194      0.1733
     34  C         24.0030   23.1800    7.5260 C.2   194  GLU194      0.2616
     35  O         24.1880   21.9610    7.5440 O.2   194  GLU194     -0.2715
     36  CB        24.8680   24.6690    9.3380 C.3   194  GLU194      0.0429
     37  CG        26.0610   23.7660    9.6500 C.3   194  GLU194      0.1163
     38  CD        25.8780   22.9570   10.9300 C.2   194  GLU194      0.3649
     39  OE1       26.7710   22.1440   11.2650 O.co2 194  GLU194     -0.2457
     40  OE2       24.8460   23.1380   11.6100 O.co2 194  GLU194     -0.2457
     41  N         24.1080   23.9130    6.4170 N.am  195  ASP195     -0.1957
     42  CA        24.4640   23.3110    5.1300 C.3   195  ASP195      0.1840
     43  C         25.8380   22.6470    5.2060 C.2   195  ASP195      0.2622
     44  O         26.6670   23.0070    6.0430 O.2   195  ASP195     -0.2715
     45  CB        24.4750   24.3700    4.0160 C.3   195  ASP195      0.1450
     46  CG        23.0800   24.8560    3.6450 C.2   195  ASP195      0.3671
     47  OD1       22.2350   24.0170    3.2600 O.co2 195  ASP195     -0.2456
     48  OD2       22.8330   26.0790    3.7300 O.co2 195  ASP195     -0.2456
     49  N         26.0700   21.6780    4.3260 N.am  196  ALA196     -0.1963
     50  CA        27.3420   20.9620    4.2840 C.3   196  ALA196      0.1728
     51  C         28.5380   21.9160    4.1970 C.2   196  ALA196      0.2616
     52  O         28.6570   22.7000    3.2540 O.2   196  ALA196     -0.2715
     53  CB        27.3530   19.9980    3.1020 C.3   196  ALA196      0.0334
     54  N         29.4240   21.8310    5.1850 N.am  197  TYR197     -0.1960
     55  CA        30.6150   22.6710    5.2590 C.3   197  TYR197      0.1771
     56  C         30.2840   24.1230    5.5650 C.2   197  TYR197      0.2620
     57  O         31.1410   24.9970    5.4410 O.2   197  TYR197     -0.2715
     58  CB        31.4370   22.5840    3.9630 C.3   197  TYR197      0.0574
     59  CG        31.9410   21.1890    3.6760 C.ar  197  TYR197     -0.0198
     60  CD1       31.1640   20.2820    2.9550 C.ar  197  TYR197     -0.0009
     61  CD2       33.1600   20.7490    4.1910 C.ar  197  TYR197     -0.0009
     62  CE1       31.5810   18.9700    2.7590 C.ar  197  TYR197      0.0417
     63  CE2       33.5900   19.4340    4.0020 C.ar  197  TYR197      0.0417
     64  CZ        32.7910   18.5510    3.2870 C.ar  197  TYR197      0.1957
     65  OH        33.1860   17.2430    3.1200 O.3   197  TYR197     -0.2866
     66  N         29.0410   24.3840    5.9600 N.am  198  SER198     -0.1936
     67  CA        28.6370   25.7420    6.3070 C.3   198  SER198      0.2055
     68  C         29.4790   26.1330    7.5160 C.2   198  SER198      0.2642
     69  O         29.9680   27.2590    7.6180 O.2   198  SER198     -0.2714
     70  CB        27.1500   25.7850    6.6670 C.3   198  SER198      0.2130
     71  OG        26.7550   27.0880    7.0600 O.3   198  SER198     -0.2179
     72  N         29.6400   25.1730    8.4230 N.am  199  GLU199     -0.1976
     73  CA        30.4280   25.3390    9.6400 C.3   199  GLU199      0.1602
     74  C         30.1870   26.6650   10.3590 C.2   199  GLU199      0.2287
     75  O         31.1030   27.2290   10.9640 O.2   199  GLU199     -0.2864
     76  CB        31.9150   25.1890    9.3120 C.3   199  GLU199      0.0415
     77  CG        32.7910   24.8880   10.5150 C.3   199  GLU199      0.1163
     78  CD        34.2510   24.7430   10.1450 C.2   199  GLU199      0.3649
     79  OE1       34.8700   25.7570    9.7600 O.co2 199  GLU199     -0.2457
     80  OE2       34.7790   23.6140   10.2340 O.co2 199  GLU199     -0.2457
     81  N         23.9140   26.1020   16.8480 N.3   203  ARG203     -0.1245
     82  CA        22.6890   25.3440   16.7110 C.3   203  ARG203      0.1563
     83  C         21.6280   25.5470   17.7830 C.2   203  ARG203      0.2260
     84  O         21.9180   25.8620   18.9450 O.2   203  ARG203     -0.2867
     85  CB        23.0250   23.8560   16.6320 C.3   203  ARG203      0.0307
     86  CG        23.8470   23.4760   15.4320 C.3   203  ARG203      0.0489
     87  CD        24.3380   22.0540   15.5490 C.3   203  ARG203      0.2205
     88  NE        25.2770   21.7270   14.4850 N.pl3 203  ARG203     -0.0865
     89  CZ        25.8730   20.5460   14.3440 C.cat 203  ARG203      0.5346
     90  NH1       25.6240   19.5690   15.2070 N.pl3 203  ARG203      0.1354
     91  NH2       26.7180   20.3420   13.3340 N.pl3 203  ARG203      0.1354
@<TRIPOS>BOND
     1    62    60   ar
     2    62    64   ar
     3    11    12    2
     4    11    10    1
     5    60    59   ar
     6    53    50    1
     7    65    64    1
     8    52    51    2
     9    47    46   ar
    10    64    63   ar
    11     9    10    1
    12    46    48   ar
    13    46    45    1
    14    59    58    1
    15    59    61   ar
    16    58    55    1
    17    10    13    1
    18    63    61   ar
    19    45    42    1
    20    13    14    1
    21    51    50    1
    22    51    54   am
    23    50    49    1
    24    49    43   am
    25    15    14    1
    26    42    43    1
    27    42    41    1
    28    54    55    1
    29    43    44    2
    30    55    56    1
    31    14    16    1
    32    57    56    2
    33    56    66   am
    34    66    67    1
    35    67    70    1
    36    67    68    1
    37    41    34   am
    38    70    71    1
    39     3     4    2
    40     3     2    1
    41    68    69    2
    42    68    72   am
    43    34    35    2
    44    34    33    1
    45     1     2    1
    46     2     5    1
    47    72    73    1
    48    33    36    1
    49    33    32    1
    50    29    28    2
    51    76    73    1
    52    76    77    1
    53    36    37    1
    54    73    74    1
    55    37    38    1
    56     5     6    1
    57    79    78   ar
    58    32    28   am
    59    28    27    1
    60    31    30    1
    61    78    80   ar
    62    78    77    1
    63    74    75    2
    64    30    27    1
    65     7     6    2
    66     6     8   am
    67    38    39   ar
    68    38    40   ar
    69    27    26    1
    70    91    89    1
    71    89    88    2
    72    89    90    1
    73    88    87    1
    74    25    24    1
    75    23    24    1
    76    23    22    1
    77    86    87    1
    78    86    85    1
    79    22    21    1
    80    85    82    1
    81    82    81    1
    82    82    83    1
    83    21    18    1
    84    20    19    2
    85    83    84    2
    86    18    19    1
    87    18    17    1
