@<TRIPOS>MOLECULE
tmp/1qxkA00.pdb
 181 172 0 0 0
SMALL
GASTEIGER

@<TRIPOS>ATOM
      1  N         22.0730   16.8310   23.9210 N.3    19  TYR19      -0.1241
      2  CA        22.6890   18.1520   23.9410 C.3    19  TYR19       0.1605
      3  C         21.7190   19.1910   23.3850 C.2    19  TYR19       0.2264
      4  O         21.5190   20.2520   23.9820 O.2    19  TYR19      -0.2867
      5  CB        23.9900   18.1690   23.1280 C.3    19  TYR19       0.0534
      6  CG        24.5840   19.5560   22.9920 C.ar   19  TYR19      -0.0201
      7  CD1       24.8240   20.3450   24.1190 C.ar   19  TYR19      -0.0009
      8  CD2       24.8710   20.0940   21.7390 C.ar   19  TYR19      -0.0009
      9  CE1       25.3300   21.6350   24.0010 C.ar   19  TYR19       0.0417
     10  CE2       25.3790   21.3840   21.6100 C.ar   19  TYR19       0.0417
     11  CZ        25.6050   22.1500   22.7440 C.ar   19  TYR19       0.1957
     12  OH        26.1010   23.4310   22.6190 O.3    19  TYR19      -0.2866
     13  N         19.7820   22.8060   24.7430 N.3    23  ARG23      -0.1245
     14  CA        19.7530   24.0880   24.0490 C.3    23  ARG23       0.1563
     15  C         18.3380   24.6430   23.9620 C.2    23  ARG23       0.2260
     16  O         18.1370   25.8540   24.0210 O.2    23  ARG23      -0.2867
     17  CB        20.3220   23.9530   22.6380 C.3    23  ARG23       0.0307
     18  CG        21.7450   23.4330   22.5740 C.3    23  ARG23       0.0489
     19  CD        22.2840   23.5580   21.1610 C.3    23  ARG23       0.2205
     20  NE        22.2970   24.9540   20.7400 N.pl3  23  ARG23      -0.0865
     21  CZ        21.9220   25.3750   19.5380 C.cat  23  ARG23       0.5346
     22  NH1       21.5020   24.5040   18.6320 N.pl3  23  ARG23       0.1354
     23  NH2       21.9570   26.6700   19.2490 N.pl3  23  ARG23       0.1354
     24  N         17.3040   25.7230   27.5950 N.3    26  ALA26      -0.1231
     25  CA        18.1510   26.7930   28.1180 C.3    26  ALA26       0.1694
     26  C         17.4390   28.1340   28.2700 C.2    26  ALA26       0.2592
     27  O         16.4650   28.4220   27.5770 O.2    26  ALA26      -0.2718
     28  CB        19.3750   26.9600   27.2360 C.3    26  ALA26       0.0304
     29  N         17.9450   28.9560   29.1820 N.am   27  SER27      -0.1952
     30  CA        17.3690   30.2670   29.4340 C.3    27  SER27       0.1924
     31  C         17.6830   31.2240   28.2950 C.2    27  SER27       0.2314
     32  O         18.5900   30.9810   27.4970 O.2    27  SER27      -0.2863
     33  CB        17.9280   30.8500   30.7350 C.3    27  SER27       0.2116
     34  OG        17.6870   29.9890   31.8310 O.3    27  SER27      -0.2180
     35  N         32.4270   38.3820   19.1920 N.3    45  TYR45      -0.1227
     36  CA        31.4500   37.6710   18.3750 C.3    45  TYR45       0.1736
     37  C         30.0620   38.2700   18.5850 C.2    45  TYR45       0.2595
     38  O         29.5980   38.3950   19.7230 O.2    45  TYR45      -0.2718
     39  CB        31.4220   36.1900   18.7570 C.3    45  TYR45       0.0548
     40  CG        32.7540   35.4940   18.6310 C.ar   45  TYR45      -0.0200
     41  CD1       33.4040   35.4030   17.3990 C.ar   45  TYR45      -0.0009
     42  CD2       33.3680   34.9210   19.7470 C.ar   45  TYR45      -0.0009
     43  CE1       34.6410   34.7520   17.2830 C.ar   45  TYR45       0.0417
     44  CE2       34.6000   34.2690   19.6460 C.ar   45  TYR45       0.0417
     45  CZ        35.2320   34.1870   18.4150 C.ar   45  TYR45       0.1957
     46  OH        36.4470   33.5420   18.3200 O.3    45  TYR45      -0.2866
     47  N         29.3970   38.6320   17.4880 N.am   46  ARG46      -0.1966
     48  CA        28.0590   39.2130   17.5720 C.3    46  ARG46       0.1729
     49  C         27.0640   38.2140   18.1490 C.2    46  ARG46       0.2616
     50  O         26.0290   38.6040   18.6800 O.2    46  ARG46      -0.2715
     51  CB        27.5460   39.6380   16.1960 C.3    46  ARG46       0.0348
     52  CG        28.5750   39.7070   15.0920 C.3    46  ARG46       0.0492
     53  CD        27.8510   39.7180   13.7640 C.3    46  ARG46       0.2205
     54  NE        26.9800   38.5510   13.6360 N.pl3  46  ARG46      -0.0865
     55  CZ        25.9810   38.4510   12.7640 C.cat  46  ARG46       0.5346
     56  NH1       25.7170   39.4550   11.9350 N.pl3  46  ARG46       0.1354
     57  NH2       25.2440   37.3470   12.7190 N.pl3  46  ARG46       0.1354
     58  N         27.3750   36.9280   18.0330 N.am   47  ASP47      -0.1957
     59  CA        26.4860   35.8920   18.5360 C.3    47  ASP47       0.1840
     60  C         26.8240   35.4270   19.9530 C.2    47  ASP47       0.2621
     61  O         26.2480   34.4510   20.4360 O.2    47  ASP47      -0.2715
     62  CB        26.4910   34.6940   17.5820 C.3    47  ASP47       0.1450
     63  CG        27.8480   34.0180   17.5020 C.2    47  ASP47       0.3671
     64  OD1       28.8660   34.7380   17.3770 O.co2  47  ASP47      -0.2456
     65  OD2       27.8960   32.7680   17.5550 O.co2  47  ASP47      -0.2456
     66  N         27.7550   36.1120   20.6140 N.am   48  VAL48      -0.1977
     67  CA        28.1320   35.7500   21.9820 C.3    48  VAL48       0.1596
     68  C         28.1190   36.9890   22.8680 C.2    48  VAL48       0.2287
     69  O         29.1110   37.7230   22.9480 O.2    48  VAL48      -0.2864
     70  CB        29.5250   35.1010   22.0290 C.3    48  VAL48       0.0276
     71  CG1       29.8680   34.7110   23.4580 C.3    48  VAL48       0.0022
     72  CG2       29.5520   33.8780   21.1340 C.3    48  VAL48       0.0022
     73  N         42.8260   34.3560   18.1860 N.3   119  LYS119     -0.1245
     74  CA        41.6420   34.1480   19.0070 C.3   119  LYS119      0.1561
     75  C         41.6120   34.9860   20.2720 C.2   119  LYS119      0.2260
     76  O         40.6910   34.8580   21.0730 O.2   119  LYS119     -0.2867
     77  CB        41.5550   32.6810   19.4200 C.3   119  LYS119      0.0271
     78  CG        41.5550   31.7150   18.2670 C.3   119  LYS119      0.0035
     79  CD        40.3480   31.9290   17.3770 C.3   119  LYS119      0.0206
     80  CE        40.3490   30.9430   16.2400 C.3   119  LYS119      0.1093
     81  NZ        39.0590   30.9560   15.5010 N.3   119  LYS119     -0.1314
     82  N         40.6750   23.5510   19.6400 N.3   180  ASP180     -0.1225
     83  CA        39.5190   24.4440   19.4890 C.3   180  ASP180      0.1805
     84  C         38.2280   23.6690   19.1720 C.2   180  ASP180      0.2597
     85  O         38.1990   22.8460   18.2530 O.2   180  ASP180     -0.2718
     86  CB        39.7960   25.4580   18.3740 C.3   180  ASP180      0.1424
     87  CG        38.8580   26.6500   18.4180 C.2   180  ASP180      0.3668
     88  OD1       37.6480   26.4560   18.6660 O.co2 180  ASP180     -0.2456
     89  OD2       39.3310   27.7860   18.1940 O.co2 180  ASP180     -0.2456
     90  N         37.1670   23.9510   19.9290 N.am  181  PHE181     -0.1976
     91  CA        35.8690   23.2920   19.7620 C.3   181  PHE181      0.1639
     92  C         35.8860   21.8080   20.1070 C.2   181  PHE181      0.2290
     93  O         34.8480   21.1450   20.0750 O.2   181  PHE181     -0.2864
     94  CB        35.3420   23.4510   18.3310 C.3   181  PHE181      0.0560
     95  CG        34.4840   24.6660   18.1300 C.ar  181  PHE181     -0.0200
     96  CD1       35.0390   25.8670   17.7000 C.ar  181  PHE181     -0.0042
     97  CD2       33.1160   24.6120   18.3800 C.ar  181  PHE181     -0.0042
     98  CE1       34.2450   26.9940   17.5200 C.ar  181  PHE181     -0.0003
     99  CE2       32.3120   25.7350   18.2040 C.ar  181  PHE181     -0.0003
    100  CZ        32.8780   26.9260   17.7720 C.ar  181  PHE181     -0.0000
    101  N         38.0920   31.6430   27.0570 N.3   214  CYS214     -0.1221
    102  CA        38.6790   30.9350   25.9310 C.3   214  CYS214      0.1808
    103  C         38.5880   32.0160   24.8780 C.2   214  CYS214      0.2602
    104  O         38.9500   33.1540   25.1470 O.2   214  CYS214     -0.2717
    105  CB        37.8660   29.6980   25.5180 C.3   214  CYS214      0.0970
    106  SG        36.1410   29.6030   26.0220 S.3   214  CYS214     -0.0800
    107  N         38.1060   31.7010   23.6900 N.am  215  SER215     -0.1938
    108  CA        37.9750   32.7560   22.7000 C.3   215  SER215      0.2055
    109  C         36.6470   33.4880   22.9350 C.2   215  SER215      0.2642
    110  O         36.6210   34.7130   23.0550 O.2   215  SER215     -0.2714
    111  CB        38.0190   32.1910   21.2780 C.3   215  SER215      0.2130
    112  OG        38.1480   33.2510   20.3450 O.3   215  SER215     -0.2179
    113  N         35.5540   32.7290   23.0170 N.am  216  ALA216     -0.1977
    114  CA        34.2220   33.3070   23.2380 C.3   216  ALA216      0.1597
    115  C         33.8240   33.2640   24.7190 C.2   216  ALA216      0.2287
    116  O         32.9220   33.9860   25.1590 O.2   216  ALA216     -0.2864
    117  CB        33.1850   32.5600   22.4000 C.3   216  ALA216      0.0319
    118  N         32.6310   30.5170   26.3970 N.3   218  ILE218     -0.1231
    119  CA        31.4040   29.7510   26.5860 C.3   218  ILE218      0.1692
    120  C         31.5950   28.2410   26.4340 C.2   218  ILE218      0.2593
    121  O         31.0450   27.4640   27.2180 O.2   218  ILE218     -0.2718
    122  CB        30.3030   30.2070   25.5950 C.3   218  ILE218      0.0266
    123  CG1       30.7480   29.9340   24.1530 C.3   218  ILE218      0.0019
    124  CG2       30.0150   31.6980   25.7900 C.3   218  ILE218      0.0020
    125  CD1       29.7270   30.3370   23.0950 C.3   218  ILE218      0.0001
    126  N         32.3750   27.8290   25.4360 N.am  219  GLY219     -0.1942
    127  CA        32.5820   26.4090   25.2060 C.3   219  GLY219      0.2014
    128  C         33.5010   25.7480   26.2100 C.2   219  GLY219      0.2638
    129  O         33.0530   25.0350   27.1150 O.2   219  GLY219     -0.2714
    130  N         34.7960   25.9830   26.0420 N.am  220  ARG220     -0.1977
    131  CA        35.7980   25.4180   26.9260 C.3   220  ARG220      0.1597
    132  C         35.6490   25.9870   28.3330 C.2   220  ARG220      0.2287
    133  O         35.7960   25.2650   29.3150 O.2   220  ARG220     -0.2864
    134  CB        37.1980   25.6770   26.3480 C.3   220  ARG220      0.0334
    135  CG        37.4770   24.8040   25.1180 C.3   220  ARG220      0.0492
    136  CD        38.7980   25.1040   24.4370 C.3   220  ARG220      0.2205
    137  NE        38.6940   26.2600   23.5580 N.pl3 220  ARG220     -0.0865
    138  CZ        39.6830   26.7380   22.8070 C.cat 220  ARG220      0.5346
    139  NH1       40.8830   26.1590   22.8100 N.pl3 220  ARG220      0.1354
    140  NH2       39.4670   27.8160   22.0600 N.pl3 220  ARG220      0.1354
    141  N         23.4650   28.2200   32.5480 N.3   253  ARG253     -0.1245
    142  CA        23.0220   28.9570   31.3740 C.3   253  ARG253      0.1563
    143  C         22.0730   30.1150   31.6730 C.2   253  ARG253      0.2260
    144  O         21.8280   30.9520   30.8060 O.2   253  ARG253     -0.2867
    145  CB        22.3960   28.0180   30.3460 C.3   253  ARG253      0.0307
    146  CG        23.4220   27.2050   29.5590 C.3   253  ARG253      0.0489
    147  CD        22.8370   26.7600   28.2240 C.3   253  ARG253      0.2205
    148  NE        23.7530   25.9560   27.4140 N.pl3 253  ARG253     -0.0865
    149  CZ        23.7620   25.9850   26.0850 C.cat 253  ARG253      0.5346
    150  NH1       22.9110   26.7800   25.4440 N.pl3 253  ARG253      0.1354
    151  NH2       24.6080   25.2260   25.3970 N.pl3 253  ARG253      0.1354
    152  N         24.8620   32.6310   28.0680 N.3   257  MET257     -0.1230
    153  CA        24.4420   31.7790   26.9650 C.3   257  MET257      0.1702
    154  C         25.5360   30.8780   26.4130 C.2   257  MET257      0.2592
    155  O         26.7210   31.1100   26.6280 O.2   257  MET257     -0.2718
    156  CB        23.9270   32.6500   25.8190 C.3   257  MET257      0.0401
    157  CG        24.9630   33.6530   25.3310 C.3   257  MET257      0.0596
    158  SD        24.5800   34.4290   23.7420 S.3   257  MET257     -0.1393
    159  CE        23.5600   35.7990   24.2790 C.3   257  MET257      0.0692
    160  N         25.1090   29.8430   25.6980 N.am  258  GLY258     -0.1957
    161  CA        26.0260   28.9230   25.0500 C.3   258  GLY258      0.1869
    162  C         27.0520   28.1180   25.8200 C.2   258  GLY258      0.2309
    163  O         27.9570   27.5630   25.1970 O.2   258  GLY258     -0.2863
    164  N         29.5460   24.1640   23.9920 N.3   261  GLN261     -0.1245
    165  CA        29.2680   24.4000   22.5780 C.3   261  GLN261      0.1566
    166  C         28.9550   23.2160   21.6750 C.2   261  GLN261      0.2260
    167  O         28.4160   23.4050   20.5890 O.2   261  GLN261     -0.2867
    168  CB        30.4260   25.1910   21.9700 C.3   261  GLN261      0.0367
    169  CG        30.3130   26.6680   22.2080 C.3   261  GLN261      0.0905
    170  CD        29.0800   27.2280   21.5480 C.2   261  GLN261      0.2608
    171  OE1       28.9570   27.1970   20.3210 O.2   261  GLN261     -0.2717
    172  NE2       28.1470   27.7320   22.3540 N.am  261  GLN261     -0.0878
    173  N         31.5380   18.2360   23.9630 N.3   265  GLN265     -0.1245
    174  CA        31.9840   18.8770   25.1950 C.3   265  GLN265      0.1566
    175  C         31.0990   18.4170   26.3400 C.2   265  GLN265      0.2260
    176  O         31.5610   18.2680   27.4680 O.2   265  GLN265     -0.2867
    177  CB        31.9250   20.4050   25.0850 C.3   265  GLN265      0.0367
    178  CG        32.8560   20.9950   24.0370 C.3   265  GLN265      0.0905
    179  CD        32.8560   22.5130   24.0410 C.2   265  GLN265      0.2608
    180  OE1       31.8330   23.1420   24.3150 O.2   265  GLN265     -0.2717
    181  NE2       34.0010   23.1110   23.7190 N.am  265  GLN265     -0.0878
@<TRIPOS>BOND
     1    56    55    1
     2    57    55    1
     3    55    54    2
     4    54    53    1
     5    53    52    1
     6    52    51    1
     7    81    80    1
     8    51    48    1
     9    80    79    1
    10    43    41   ar
    11    43    45   ar
    12    64    63   ar
    13    79    78    1
    14    41    40   ar
    15    47    48    1
    16    47    37   am
    17    63    65   ar
    18    63    62    1
    19    98    96   ar
    20    98   100   ar
    21    48    49    1
    22    62    59    1
    23    96    95   ar
    24   100    99   ar
    25    58    49   am
    26    58    59    1
    27    95    94    1
    28    95    97   ar
    29    49    50    2
    30    73    74    1
    31    89    87   ar
    32    99    97   ar
    33    85    84    2
    34    78    77    1
    35    46    45    1
    36    94    91    1
    37    86    87    1
    38    86    83    1
    39    36    37    1
    40    36    39    1
    41    36    35    1
    42    45    44   ar
    43    87    88   ar
    44    59    60    1
    45    37    38    2
    46    40    39    1
    47    40    42   ar
    48    22    21    1
    49    74    77    1
    50    74    75    1
    51    84    83    1
    52    84    90   am
    53    23    21    1
    54    83    82    1
    55    21    20    2
    56    44    42   ar
    57    91    90    1
    58    91    92    1
    59    60    61    2
    60    60    66   am
    61    93    92    2
    62    75    76    2
    63   171   170    2
    64   112   111    1
    65   167   166    2
    66    66    67    1
    67    20    19    1
    68    72    70    1
    69    19    18    1
    70   111   108    1
    71   170   169    1
    72   170   172   am
    73    10     8   ar
    74    10    11   ar
    75   166   165    1
    76     8     6   ar
    77   168   169    1
    78   168   165    1
    79    67    70    1
    80    67    68    1
    81    70    71    1
    82   140   138    1
    83   117   114    1
    84    18    17    1
    85   165   164    1
    86    12    11    1
    87    17    14    1
    88   108   109    1
    89   108   107    1
    90    11     9   ar
    91   138   139    1
    92   138   137    2
    93    68    69    2
    94   109   113   am
    95   109   110    2
    96     6     5    1
    97     6     7   ar
    98   113   114    1
    99   125   123    1
   100     5     2    1
   101   114   115    1
   102     3     2    1
   103     3     4    2
   104   137   136    1
   105   107   103   am
   106   181   179   am
   107   158   159    1
   108   158   157    1
   109     1     2    1
   110    15    16    2
   111    15    14    1
   112   173   174    1
   113     9     7   ar
   114   178   179    1
   115   178   177    1
   116   179   180    2
   117    14    13    1
   118   123   122    1
   119   136   135    1
   120   115   116    2
   121   103   104    2
   122   103   102    1
   123   161   160    1
   124   161   162    1
   125   177   174    1
   126   135   134    1
   127   174   175    1
   128   163   162    2
   129   127   126    1
   130   127   128    1
   131   157   156    1
   132   151   149    1
   133   126   120   am
   134   150   149    1
   135   105   102    1
   136   105   106    1
   137   122   124    1
   138   122   119    1
   139   160   154   am
   140   156   153    1
   141   102   101    1
   142   130   128   am
   143   130   131    1
   144   149   148    2
   145   128   129    2
   146   175   176    2
   147   134   131    1
   148   118   119    1
   149   154   155    2
   150   154   153    1
   151   120   119    1
   152   120   121    2
   153   131   132    1
   154   153   152    1
   155    28    25    1
   156   148   147    1
   157    32    31    2
   158    27    26    2
   159    24    25    1
   160    25    26    1
   161   147   146    1
   162    26    29   am
   163    31    30    1
   164   132   133    2
   165    29    30    1
   166    30    33    1
   167   146   145    1
   168   145   142    1
   169    33    34    1
   170   144   143    2
   171   142   143    1
   172   142   141    1
