@<TRIPOS>MOLECULE
tmp/1qxlA00.pdb
 243 234 0 0 0
SMALL
GASTEIGER

@<TRIPOS>ATOM
      1  N         56.4910   52.8630   26.1600 N.3    14  HIS14      -0.1241
      2  CA        55.9490   54.2340   26.0260 C.3    14  HIS14       0.1621
      3  C         55.5550   54.9250   27.3570 C.2    14  HIS14       0.2264
      4  O         54.6840   54.4740   28.0790 O.2    14  HIS14      -0.2867
      5  CB        54.6700   54.1630   25.1370 C.3    14  HIS14       0.0745
      6  CG        54.9330   53.6590   23.6930 C.ar   14  HIS14       0.0817
      7  ND1       55.0720   54.4450   22.6080 N.ar   14  HIS14      -0.2268
      8  CD2       55.0430   52.3490   23.2310 C.ar   14  HIS14       0.1154
      9  CE1       55.2490   53.6840   21.5020 C.ar   14  HIS14       0.1986
     10  NE2       55.2460   52.3570   21.8630 N.ar   14  HIS14      -0.2212
     11  N         53.6770   57.4280   27.9520 N.3    16  ASP16      -0.1225
     12  CA        52.2770   57.8040   27.9180 C.3    16  ASP16       0.1805
     13  C         51.3010   56.6610   27.9450 C.2    16  ASP16       0.2598
     14  O         50.1120   56.8750   27.9380 O.2    16  ASP16      -0.2718
     15  CB        51.9430   58.7800   26.7220 C.3    16  ASP16       0.1424
     16  CG        52.3490   58.2490   25.3510 C.2    16  ASP16       0.3668
     17  OD1       51.9080   58.8270   24.3590 O.co2  16  ASP16      -0.2456
     18  OD2       53.1050   57.2860   25.2680 O.co2  16  ASP16      -0.2456
     19  N         51.8720   55.4640   28.0510 N.am   17  GLY17      -0.1957
     20  CA        51.1360   54.2900   28.4770 C.3    17  GLY17       0.1869
     21  C         51.7190   53.5660   29.7060 C.2    17  GLY17       0.2309
     22  O         51.5510   52.3790   29.9320 O.2    17  GLY17      -0.2863
     23  N         43.1670   46.6880   28.8060 N.3    49  MET49      -0.1245
     24  CA        42.5070   45.7270   27.9220 C.3    49  MET49       0.1570
     25  C         42.6420   44.3700   28.6030 C.2    49  MET49       0.2261
     26  O         43.6700   44.1270   29.2350 O.2    49  MET49      -0.2867
     27  CB        43.2040   45.6700   26.5320 C.3    49  MET49       0.0387
     28  CG        43.1270   46.9220   25.6790 C.3    49  MET49       0.0595
     29  SD        44.3840   47.0190   24.3860 S.3    49  MET49      -0.1393
     30  CE        43.9810   45.6310   23.3220 C.3    49  MET49       0.0692
     31  N         40.8100   44.4390   20.9230 N.3    53  LEU53      -0.1231
     32  CA        39.7690   45.3020   20.3350 C.3    53  LEU53       0.1693
     33  C         40.1930   45.8650   19.0030 C.2    53  LEU53       0.2593
     34  O         41.2730   45.6460   18.5320 O.2    53  LEU53      -0.2718
     35  CB        39.5440   46.5700   21.1550 C.3    53  LEU53       0.0284
     36  CG        39.9210   46.5410   22.6280 C.3    53  LEU53       0.0019
     37  CD1       40.2270   47.9660   23.0390 C.3    53  LEU53       0.0001
     38  CD2       38.8750   45.8920   23.5530 C.3    53  LEU53       0.0001
     39  N         39.3530   46.6860   18.4200 N.am   54  THR54      -0.1939
     40  CA        39.8150   47.4010   17.2240 C.3    54  THR54       0.2028
     41  C         40.6410   48.6430   17.4040 C.2    54  THR54       0.2642
     42  O         40.7180   49.2190   18.4650 O.2    54  THR54      -0.2714
     43  CB        38.6450   47.9380   16.4530 C.3    54  THR54       0.1808
     44  OG1       37.9600   48.9960   17.1870 O.3    54  THR54      -0.2208
     45  CG2       37.7600   46.7610   16.1570 C.3    54  THR54       0.0379
     46  N         41.2130   49.0990   16.2880 N.am   55  LEU55      -0.1977
     47  CA        42.0380   50.3040   16.4250 C.3    55  LEU55       0.1596
     48  C         41.3900   51.5470   17.0810 C.2    55  LEU55       0.2287
     49  O         41.9330   52.1790   17.9690 O.2    55  LEU55      -0.2864
     50  CB        42.7030   50.5820   15.0550 C.3    55  LEU55       0.0297
     51  CG        44.1920   50.9680   14.9810 C.3    55  LEU55       0.0022
     52  CD1       44.4630   51.8710   13.8120 C.3    55  LEU55       0.0001
     53  CD2       44.7610   51.6600   16.2150 C.3    55  LEU55       0.0001
     54  N         41.1000   51.0330   20.5570 N.3    58  PHE58      -0.1227
     55  CA        42.4080   51.2460   21.2210 C.3    58  PHE58       0.1736
     56  C         42.7800   52.6950   21.4350 C.2    58  PHE58       0.2595
     57  O         43.2450   53.1080   22.5010 O.2    58  PHE58      -0.2718
     58  CB        43.4810   50.4050   20.5200 C.3    58  PHE58       0.0547
     59  CG        44.9070   50.4930   21.0440 C.ar   58  PHE58      -0.0202
     60  CD1       45.3320   49.6620   22.0970 C.ar   58  PHE58      -0.0042
     61  CD2       45.8380   51.3540   20.3970 C.ar   58  PHE58      -0.0042
     62  CE1       46.6530   49.7420   22.5600 C.ar   58  PHE58      -0.0003
     63  CE2       47.1630   51.4260   20.8700 C.ar   58  PHE58      -0.0003
     64  CZ        47.5540   50.6530   21.9770 C.ar   58  PHE58      -0.0000
     65  N         42.4930   53.5070   20.4040 N.am   59  LEU59      -0.1980
     66  CA        42.8160   54.9280   20.5600 C.3    59  LEU59       0.1596
     67  C         42.0180   55.7990   21.5940 C.2    59  LEU59       0.2287
     68  O         42.4570   56.7560   22.2190 O.2    59  LEU59      -0.2864
     69  CB        42.8120   55.5240   19.1600 C.3    59  LEU59       0.0297
     70  CG        43.8490   54.9380   18.1530 C.3    59  LEU59       0.0022
     71  CD1       43.9620   55.9060   16.9710 C.3    59  LEU59       0.0001
     72  CD2       45.2990   54.7240   18.6530 C.3    59  LEU59       0.0001
     73  N         43.4080   56.2920   24.9510 N.3    62  PHE62      -0.1241
     74  CA        44.1930   57.5280   25.0350 C.3    62  PHE62       0.1605
     75  C         43.3650   58.7890   25.3340 C.2    62  PHE62       0.2264
     76  O         43.6840   59.6710   26.1350 O.2    62  PHE62      -0.2867
     77  CB        45.1020   57.6450   23.7860 C.3    62  PHE62       0.0534
     78  CG        46.1930   56.5790   23.7850 C.ar   62  PHE62      -0.0203
     79  CD1       46.1540   55.5070   22.8630 C.ar   62  PHE62      -0.0042
     80  CD2       47.2660   56.6790   24.7130 C.ar   62  PHE62      -0.0042
     81  CE1       47.1590   54.4920   22.9240 C.ar   62  PHE62      -0.0003
     82  CE2       48.2720   55.7030   24.7720 C.ar   62  PHE62      -0.0003
     83  CZ        48.1670   54.6010   23.9090 C.ar   62  PHE62      -0.0000
     84  N         58.2930   58.5150   23.7790 N.3    99  TYR99      -0.1227
     85  CA        57.0470   59.3010   23.7880 C.3    99  TYR99       0.1736
     86  C         57.1240   60.3650   22.7190 C.2    99  TYR99       0.2596
     87  O         58.1590   60.9050   22.3450 O.2    99  TYR99      -0.2718
     88  CB        56.8010   59.9790   25.2200 C.3    99  TYR99       0.0548
     89  CG        57.8200   61.1050   25.5530 C.ar   99  TYR99      -0.0200
     90  CD1       57.4360   62.4330   25.3030 C.ar   99  TYR99      -0.0009
     91  CD2       59.1070   60.7910   26.0370 C.ar   99  TYR99      -0.0009
     92  CE1       58.3450   63.4690   25.5060 C.ar   99  TYR99       0.0417
     93  CE2       60.0280   61.8350   26.2370 C.ar   99  TYR99       0.0417
     94  CZ        59.6070   63.1620   26.0150 C.ar   99  TYR99       0.1957
     95  OH        60.4550   64.2000   26.2820 O.3    99  TYR99      -0.2866
     96  N         55.9480   60.7110   22.2530 N.am  100  SER100     -0.1952
     97  CA        55.7740   61.9490   21.4310 C.3   100  SER100      0.1924
     98  C         55.5640   63.2520   22.2190 C.2   100  SER100      0.2314
     99  O         54.5760   63.4490   22.8970 O.2   100  SER100     -0.2863
    100  CB        54.5390   61.8680   20.5360 C.3   100  SER100      0.2116
    101  OG        54.2320   63.1540   19.9460 O.3   100  SER100     -0.2180
    102  N         52.3210   65.1900   21.4380 N.3   103  LEU103     -0.1245
    103  CA        51.0570   64.7080   22.0630 C.3   103  LEU103      0.1561
    104  C         50.7530   65.0890   23.5120 C.2   103  LEU103      0.2260
    105  O         49.6540   64.8910   24.0220 O.2   103  LEU103     -0.2867
    106  CB        50.8780   63.2060   22.0080 C.3   103  LEU103      0.0270
    107  CG        50.9200   62.6120   20.5820 C.3   103  LEU103      0.0019
    108  CD1       50.6550   61.1380   20.6580 C.3   103  LEU103      0.0001
    109  CD2       49.9230   63.2690   19.5940 C.3   103  LEU103      0.0001
    110  N         44.1890   65.8310   21.5540 N.3   114  TRP114     -0.1241
    111  CA        43.1420   65.4930   22.5700 C.3   114  TRP114      0.1605
    112  C         41.9130   66.4060   22.7080 C.2   114  TRP114      0.2264
    113  O         41.3240   66.5150   23.7710 O.2   114  TRP114     -0.2867
    114  CB        43.7360   65.3120   23.9870 C.3   114  TRP114      0.0550
    115  CG        44.9980   64.5370   23.8190 C.ar  114  TRP114      0.0003
    116  CD1       46.2770   64.9320   24.1650 C.ar  114  TRP114      0.0946
    117  CD2       45.1250   63.2110   23.2550 C.ar  114  TRP114      0.0152
    118  NE1       47.1510   63.9370   23.8780 N.ar  114  TRP114     -0.2442
    119  CE2       46.5010   62.8540   23.3380 C.ar  114  TRP114      0.0810
    120  CE3       44.1800   62.3080   22.6890 C.ar  114  TRP114      0.0012
    121  CZ2       46.9230   61.5900   22.9190 C.ar  114  TRP114      0.0191
    122  CZ3       44.6160   61.0460   22.2430 C.ar  114  TRP114      0.0001
    123  CH2       45.9780   60.6680   22.3800 C.ar  114  TRP114      0.0015
    124  N         59.2720   60.2740   19.8710 N.3   150  CYS150     -0.1235
    125  CA        58.6070   59.5510   18.7960 C.3   150  CYS150      0.1677
    126  C         58.1800   60.5150   17.7430 C.2   150  CYS150      0.2270
    127  O         57.4130   61.4250   18.0460 O.2   150  CYS150     -0.2867
    128  CB        57.2960   58.9080   19.2840 C.3   150  CYS150      0.0956
    129  SG        57.6930   57.5430   20.3870 S.3   150  CYS150     -0.0801
    130  N         55.3260   60.7440   14.7670 N.3   152  MET152     -0.1245
    131  CA        54.0290   60.0540   14.4330 C.3   152  MET152      0.1570
    132  C         53.6740   59.7650   12.9170 C.2   152  MET152      0.2261
    133  O         53.6270   60.6560   12.1070 O.2   152  MET152     -0.2867
    134  CB        52.8190   60.7600   15.0980 C.3   152  MET152      0.0387
    135  CG        52.9860   60.9410   16.5940 C.3   152  MET152      0.0595
    136  SD        52.9950   59.3090   17.2990 S.3   152  MET152     -0.1393
    137  CE        51.3170   58.8710   16.9390 C.3   152  MET152      0.0692
    138  N         51.1230   59.4460   10.8620 N.3   154  HIS154     -0.1241
    139  CA        50.0960   60.3450   10.3410 C.3   154  HIS154      0.1621
    140  C         50.4630   61.8010   10.2820 C.2   154  HIS154      0.2264
    141  O         49.7260   62.6530    9.8020 O.2   154  HIS154     -0.2867
    142  CB        48.7360   60.0670   11.0630 C.3   154  HIS154      0.0745
    143  CG        48.6190   60.6750   12.4590 C.ar  154  HIS154      0.0817
    144  ND1       49.1120   60.1500   13.5930 N.ar  154  HIS154     -0.2268
    145  CD2       48.0120   61.9040   12.7990 C.ar  154  HIS154      0.1154
    146  CE1       48.8350   61.0320   14.6150 C.ar  154  HIS154      0.1986
    147  NE2       48.1570   62.1090   14.1260 N.ar  154  HIS154     -0.2212
    148  N         56.3830   56.0120   15.4820 N.3   180  ALA180     -0.1231
    149  CA        55.2480   55.2560   16.0030 C.3   180  ALA180      0.1694
    150  C         53.9530   55.7150   15.3040 C.2   180  ALA180      0.2593
    151  O         53.8480   56.7010   14.6010 O.2   180  ALA180     -0.2718
    152  CB        55.0770   55.5240   17.5180 C.3   180  ALA180      0.0304
    153  N         52.9410   54.9030   15.5760 N.am  181  GLY181     -0.1942
    154  CA        51.5250   55.1390   15.3200 C.3   181  GLY181      0.2014
    155  C         50.9280   54.4910   14.0980 C.2   181  GLY181      0.2639
    156  O         50.4370   55.2310   13.2930 O.2   181  GLY181     -0.2714
    157  N         50.8730   53.2250   13.8640 N.am  182  ASP182     -0.1957
    158  CA        49.9040   52.9700   12.6580 C.3   182  ASP182      0.1840
    159  C         50.5430   52.8530   11.3000 C.2   182  ASP182      0.2621
    160  O         50.3310   53.5920   10.3470 O.2   182  ASP182     -0.2715
    161  CB        48.4850   53.6760   12.3940 C.3   182  ASP182      0.1450
    162  CG        47.5630   52.9060   11.3840 C.2   182  ASP182      0.3671
    163  OD1       47.8200   51.7500   11.1970 O.co2 182  ASP182     -0.2456
    164  OD2       46.6170   53.4150   10.7800 O.co2 182  ASP182     -0.2456
    165  N         51.3160   51.7790   11.2750 N.am  183  GLU183     -0.1977
    166  CA        51.9740   51.4900   10.0260 C.3   183  GLU183      0.1602
    167  C         51.1070   50.9940    8.8650 C.2   183  GLU183      0.2287
    168  O         51.6860   50.4750    7.9510 O.2   183  GLU183     -0.2864
    169  CB        53.1580   50.5300   10.2140 C.3   183  GLU183      0.0415
    170  CG        53.0670   49.7570   11.5150 C.3   183  GLU183      0.1163
    171  CD        53.6350   48.3370   11.5230 C.2   183  GLU183      0.3649
    172  OE1       53.4380   47.6340   12.4880 O.co2 183  GLU183     -0.2457
    173  OE2       54.3070   47.9300   10.5990 O.co2 183  GLU183     -0.2457
    174  N         58.9480   51.6890   14.6550 N.3   211  HIS211     -0.1241
    175  CA        58.0500   50.5670   14.8450 C.3   211  HIS211      0.1621
    176  C         57.6290   49.9790   13.4980 C.2   211  HIS211      0.2264
    177  O         57.1440   50.6960   12.6440 O.2   211  HIS211     -0.2867
    178  CB        56.7490   51.0160   15.4700 C.3   211  HIS211      0.0745
    179  CG        56.7470   51.4700   16.9180 C.ar  211  HIS211      0.0817
    180  ND1       57.3030   52.5510   17.3820 N.ar  211  HIS211     -0.2268
    181  CD2       56.0810   50.8710   17.9670 C.ar  211  HIS211      0.1154
    182  CE1       57.0180   52.6630   18.6770 C.ar  211  HIS211      0.1986
    183  NE2       56.2500   51.6190   19.0660 N.ar  211  HIS211     -0.2212
    184  N         54.7170   45.2030   13.3370 N.3   214  GLU214     -0.1231
    185  CA        53.8130   44.7460   14.3870 C.3   214  GLU214      0.1699
    186  C         52.4830   44.2220   13.8190 C.2   214  GLU214      0.2592
    187  O         52.0290   43.1120   14.0740 O.2   214  GLU214     -0.2718
    188  CB        53.5280   45.8510   15.4440 C.3   214  GLU214      0.0402
    189  CG        52.5660   45.5580   16.6310 C.3   214  GLU214      0.1161
    190  CD        52.3010   46.8320   17.4210 C.2   214  GLU214      0.3649
    191  OE1       52.6950   47.9090   16.9760 O.co2 214  GLU214     -0.2457
    192  OE2       51.7150   46.7610   18.5020 O.co2 214  GLU214     -0.2457
    193  N         51.9430   45.1070   12.9950 N.am  215  VAL215     -0.1980
    194  CA        50.6760   44.8230   12.2720 C.3   215  VAL215      0.1595
    195  C         50.8130   45.1270   10.7180 C.2   215  VAL215      0.2287
    196  O         49.9130   45.0520    9.9010 O.2   215  VAL215     -0.2864
    197  CB        49.6350   45.6730   13.0900 C.3   215  VAL215      0.0276
    198  CG1       49.3320   47.0190   12.5480 C.3   215  VAL215      0.0022
    199  CG2       48.5210   44.9540   13.8500 C.3   215  VAL215      0.0022
    200  N         59.1510   45.7440   17.4400 N.3   235  HIS235     -0.1241
    201  CA        58.5200   44.4800   17.1560 C.3   235  HIS235      0.1621
    202  C         59.1970   43.6500   16.0160 C.2   235  HIS235      0.2264
    203  O         59.9320   42.6780   16.1910 O.2   235  HIS235     -0.2867
    204  CB        57.0280   44.6860   16.7920 C.3   235  HIS235      0.0745
    205  CG        56.2570   45.4480   17.8500 C.ar  235  HIS235      0.0817
    206  ND1       55.7020   44.8840   18.9410 N.ar  235  HIS235     -0.2268
    207  CD2       55.9390   46.8080   17.8920 C.ar  235  HIS235      0.1154
    208  CE1       55.0360   45.8040   19.6680 C.ar  235  HIS235      0.1986
    209  NE2       55.2040   46.9870   19.0210 N.ar  235  HIS235     -0.2212
    210  N         47.0950   42.9410   21.6650 N.3   266  THR266     -0.1218
    211  CA        46.7150   43.7330   20.4650 C.3   266  THR266      0.1862
    212  C         46.1410   43.0400   19.2340 C.2   266  THR266      0.2287
    213  O         45.6460   43.6960   18.3410 O.2   266  THR266     -0.2866
    214  CB        47.8540   44.5610   19.8720 C.3   266  THR266      0.1770
    215  OG1       48.8260   43.7190   19.2050 O.3   266  THR266     -0.2211
    216  CG2       48.4770   45.5120   20.9260 C.3   266  THR266      0.0375
    217  N         56.1750   47.6240   26.5660 N.3   292  ASP292     -0.1225
    218  CA        55.4040   48.5060   25.6680 C.3   292  ASP292      0.1805
    219  C         54.4630   49.5260   26.3050 C.2   292  ASP292      0.2597
    220  O         54.7210   50.7270   26.2760 O.2   292  ASP292     -0.2718
    221  CB        54.7270   47.6670   24.5660 C.3   292  ASP292      0.1424
    222  CG        54.3810   48.3370   23.2550 C.2   292  ASP292      0.3668
    223  OD1       54.8500   49.4210   23.0110 O.co2 292  ASP292     -0.2456
    224  OD2       53.6580   47.7560   22.4450 O.co2 292  ASP292     -0.2456
    225  N         53.3650   49.0040   26.8500 N.am  293  ASP293     -0.1974
    226  CA        52.4000   49.8940   27.5150 C.3   293  ASP293      0.1709
    227  C         51.7790   49.2420   28.7580 C.2   293  ASP293      0.2293
    228  O         50.6650   48.7480   28.7140 O.2   293  ASP293     -0.2864
    229  CB        51.1600   50.2240   26.6360 C.3   293  ASP293      0.1436
    230  CG        51.4960   50.8150   25.2640 C.2   293  ASP293      0.3671
    231  OD1       51.5600   52.0580   25.1940 O.co2 293  ASP293     -0.2456
    232  OD2       51.6650   50.0130   24.3180 O.co2 293  ASP293     -0.2456
    233  N         48.0670   47.5750   28.9010 N.3   297  PHE297     -0.1241
    234  CA        47.9870   46.1120   28.9200 C.3   297  PHE297      0.1605
    235  C         47.8730   45.4290   30.2760 C.2   297  PHE297      0.2264
    236  O         47.8730   44.2110   30.3520 O.2   297  PHE297     -0.2867
    237  CB        49.1850   45.5300   28.1330 C.3   297  PHE297      0.0534
    238  CG        49.3200   46.1140   26.7320 C.ar  297  PHE297     -0.0203
    239  CD1       48.1830   46.2240   25.8960 C.ar  297  PHE297     -0.0042
    240  CD2       50.5920   46.5410   26.2850 C.ar  297  PHE297     -0.0042
    241  CE1       48.3340   46.7600   24.6010 C.ar  297  PHE297     -0.0003
    242  CE2       50.7260   47.1110   24.9780 C.ar  297  PHE297     -0.0003
    243  CZ        49.5930   47.2000   24.1570 C.ar  297  PHE297     -0.0000
@<TRIPOS>BOND
     1   168   167    2
     2   167   166    1
     3   141   140    2
     4   196   195    2
     5   166   169    1
     6   166   165    1
     7   169   170    1
     8   140   139    1
     9   139   138    1
    10   139   142    1
    11   160   159    2
    12   173   171   ar
    13   195   194    1
    14   164   162   ar
    15   142   143    1
    16   163   162   ar
    17   165   159   am
    18   159   158    1
    19   162   161    1
    20   170   171    1
    21   171   172   ar
    22   133   132    2
    23   194   193    1
    24   194   197    1
    25   161   158    1
    26   143   145   ar
    27   143   144   ar
    28   198   197    1
    29   177   176    2
    30   158   157    1
    31   145   147   ar
    32   132   131    1
    33   193   186   am
    34   197   199    1
    35   156   155    2
    36   184   185    1
    37   176   175    1
    38   144   146   ar
    39    52    51    1
    40   186   187    2
    41   186   185    1
    42   157   155   am
    43   155   154    1
    44   147   146   ar
    45   185   188    1
    46   131   130    1
    47   131   134    1
    48   151   150    2
    49   174   175    1
    50   175   178    1
    51    51    50    1
    52    51    53    1
    53    50    47    1
    54   134   135    1
    55   150   153   am
    56   150   149    1
    57   154   153    1
    58   188   189    1
    59   178   179    1
    60   148   149    1
    61   149   152    1
    62   202   203    2
    63   202   201    1
    64    45    43    1
    65    46    47    1
    66    46    41   am
    67    47    48    1
    68    43    44    1
    69    43    40    1
    70   135   136    1
    71   189   190    1
    72   204   201    1
    73   204   205    1
    74   179   180   ar
    75   179   181   ar
    76   137   136    1
    77    71    70    1
    78   191   190   ar
    79    48    49    2
    80   201   200    1
    81    40    41    1
    82    40    39    1
    83   180   182   ar
    84    41    42    2
    85   190   192   ar
    86   126   127    2
    87   126   125    1
    88   205   207   ar
    89   205   206   ar
    90   207   209   ar
    91   181   183   ar
    92    70    72    1
    93    70    69    1
    94   213   212    2
    95    39    33   am
    96    34    33    2
    97   182   183   ar
    98   125   128    1
    99   125   124    1
   100   206   208   ar
   101    33    32    1
   102   209   208   ar
   103    69    66    1
   104   215   214    1
   105   212   211    1
   106   128   129    1
   107   109   107    1
   108   214   211    1
   109   214   216    1
   110   101   100    1
   111    32    31    1
   112    32    35    1
   113    61    63   ar
   114    61    59   ar
   115    65    66    1
   116    65    56   am
   117   211   210    1
   118    58    59    1
   119    58    55    1
   120   100    97    1
   121    54    55    1
   122    66    67    1
   123   107   108    1
   124   107   106    1
   125    63    64   ar
   126    59    60   ar
   127    35    36    1
   128    55    56    1
   129    97    98    1
   130    97    96    1
   131    56    57    2
   132   102   103    1
   133     9    10   ar
   134     9     7   ar
   135   110   111    1
   136    67    68    2
   137    10     8   ar
   138    64    62   ar
   139   106   103    1
   140   103   104    1
   141    60    62   ar
   142    98    99    2
   143   122   123   ar
   144   122   120   ar
   145    96    86   am
   146    87    86    2
   147   123   121   ar
   148   224   222   ar
   149   111   112    1
   150   111   114    1
   151     7     6   ar
   152    36    37    1
   153    36    38    1
   154   120   117   ar
   155   112   113    2
   156    86    85    1
   157    79    81   ar
   158    79    78   ar
   159   121   119   ar
   160    81    83   ar
   161   223   222   ar
   162     8     6   ar
   163   222   221    1
   164   117   119   ar
   165   117   115   ar
   166    30    29    1
   167   119   118   ar
   168   104   105    2
   169     6     5    1
   170    84    85    1
   171    78    77    1
   172    78    80   ar
   173    77    74    1
   174    85    88    1
   175   115   114    1
   176   115   116   ar
   177   118   116   ar
   178    83    82   ar
   179   243   241   ar
   180   243   242   ar
   181   232   230   ar
   182    17    16   ar
   183    29    28    1
   184   221   218    1
   185   241   239   ar
   186    80    82   ar
   187    73    74    1
   188   242   240   ar
   189    74    75    1
   190     5     2    1
   191   231   230   ar
   192    88    89    1
   193   230   229    1
   194    18    16   ar
   195    90    92   ar
   196    90    89   ar
   197    75    76    2
   198    16    15    1
   199    92    94   ar
   200    89    91   ar
   201   218   219    1
   202   218   217    1
   203    28    27    1
   204   239   238   ar
   205    94    93   ar
   206    94    95    1
   207     2     1    1
   208     2     3    1
   209    91    93   ar
   210   220   219    2
   211   240   238   ar
   212   219   225   am
   213    27    24    1
   214   229   226    1
   215    15    12    1
   216   238   237    1
   217   225   226    1
   218     3     4    2
   219   226   227    1
   220    12    13    1
   221    12    11    1
   222    24    25    1
   223    24    23    1
   224    14    13    2
   225    13    19   am
   226    19    20    1
   227   237   234    1
   228    20    21    1
   229    25    26    2
   230   228   227    2
   231   233   234    1
   232   234   235    1
   233    21    22    2
   234   235   236    2
