@<TRIPOS>MOLECULE
tmp/1qxoD01.pdb
 196 184 0 0 0
SMALL
GASTEIGER

@<TRIPOS>ATOM
      1  N          9.5760   12.8980  -38.0610 N.3    38  ARG38      -0.1245
      2  CA         8.5950   13.9320  -37.7020 C.3    38  ARG38       0.1563
      3  C          8.8480   15.2800  -38.3750 C.2    38  ARG38       0.2260
      4  O          7.9870   16.1510  -38.5060 O.2    38  ARG38      -0.2867
      5  CB         8.6190   14.1390  -36.1590 C.3    38  ARG38       0.0307
      6  CG         7.4030   14.9910  -35.6910 C.3    38  ARG38       0.0489
      7  CD         7.7030   15.5430  -34.2630 C.3    38  ARG38       0.2205
      8  NE         8.6680   16.6000  -34.4700 N.pl3  38  ARG38      -0.0865
      9  CZ         8.4450   17.8450  -34.8000 C.cat  38  ARG38       0.5346
     10  NH1        7.1970   18.3110  -34.9130 N.pl3  38  ARG38       0.1354
     11  NH2        9.4480   18.6470  -35.0280 N.pl3  38  ARG38       0.1354
     12  N          6.2720   20.7360  -45.6270 N.3    44  ARG44      -0.1245
     13  CA         6.8530   21.4380  -44.4980 C.3    44  ARG44       0.1563
     14  C          8.0940   22.1720  -44.9940 C.2    44  ARG44       0.2260
     15  O          8.8060   21.6320  -45.8510 O.2    44  ARG44      -0.2867
     16  CB         7.2420   20.5070  -43.3410 C.3    44  ARG44       0.0307
     17  CG         6.0270   19.7470  -42.7960 C.3    44  ARG44       0.0489
     18  CD         6.2840   19.2120  -41.3730 C.3    44  ARG44       0.2205
     19  NE         6.0830   20.3640  -40.4620 N.pl3  44  ARG44      -0.0865
     20  CZ         6.4050   20.3500  -39.1610 C.cat  44  ARG44       0.5346
     21  NH1        6.9610   19.2730  -38.6250 N.pl3  44  ARG44       0.1354
     22  NH2        6.1800   21.4540  -38.4730 N.pl3  44  ARG44       0.1354
     23  N         -4.7210   34.5030  -33.9210 N.3   103  ARG103     -0.1245
     24  CA        -5.0950   33.8370  -35.1620 C.3   103  ARG103      0.1563
     25  C         -6.2340   32.8520  -34.9790 C.2   103  ARG103      0.2260
     26  O         -6.2870   32.0400  -34.0750 O.2   103  ARG103     -0.2867
     27  CB        -3.9030   33.3160  -35.8940 C.3   103  ARG103      0.0307
     28  CG        -3.1330   32.2060  -35.2800 C.3   103  ARG103      0.0489
     29  CD        -1.6250   32.5340  -35.6290 C.3   103  ARG103      0.2205
     30  NE        -0.9830   32.0170  -34.4470 N.pl3 103  ARG103     -0.0865
     31  CZ         0.0230   31.2460  -34.1510 C.cat 103  ARG103      0.5346
     32  NH1        0.7670   30.7430  -35.1230 N.pl3 103  ARG103      0.1354
     33  NH2        0.2670   30.9960  -32.8590 N.pl3 103  ARG103      0.1354
     34  N         -8.4720   29.7730  -35.2760 N.3   105  GLY105     -0.1210
     35  CA        -8.1040   28.4000  -35.2380 C.3   105  GLY105      0.1956
     36  C         -6.9390   28.0700  -34.3090 C.2   105  GLY105      0.2612
     37  O         -6.7950   26.8820  -34.0050 O.2   105  GLY105     -0.2717
     38  N         -6.2670   29.0570  -33.7320 N.am  106  HIS106     -0.1961
     39  CA        -5.1510   28.6840  -32.8320 C.3   106  HIS106      0.1787
     40  C         -5.4850   28.9380  -31.3740 C.2   106  HIS106      0.2620
     41  O         -6.5790   29.4520  -31.0800 O.2   106  HIS106     -0.2715
     42  CB        -3.9480   29.4180  -33.3750 C.3   106  HIS106      0.0785
     43  CG        -2.6610   28.6660  -33.2850 C.ar  106  HIS106      0.0821
     44  ND1       -2.1190   28.3370  -32.0460 N.ar  106  HIS106     -0.2267
     45  CD2       -1.8570   28.1650  -34.2280 C.ar  106  HIS106      0.1154
     46  CE1       -0.9820   27.6850  -32.2420 C.ar  106  HIS106      0.1986
     47  NE2       -0.8090   27.5950  -33.5510 N.ar  106  HIS106     -0.2212
     48  N         -4.5700   28.6980  -30.4350 N.am  107  ALA107     -0.1977
     49  CA        -4.8580   28.9320  -29.0330 C.3   107  ALA107      0.1597
     50  C         -4.6390   30.3760  -28.5760 C.2   107  ALA107      0.2287
     51  O         -4.9010   30.7050  -27.4070 O.2   107  ALA107     -0.2864
     52  CB        -3.9280   27.9970  -28.2240 C.3   107  ALA107      0.0319
     53  N          1.7540   26.5190  -27.1320 N.3   127  SER127     -0.1217
     54  CA         0.6930   25.7500  -27.8320 C.3   127  SER127      0.1889
     55  C          1.2280   25.2320  -29.1820 C.2   127  SER127      0.2288
     56  O          0.6520   24.2930  -29.7670 O.2   127  SER127     -0.2866
     57  CB        -0.5610   26.5860  -28.0880 C.3   127  SER127      0.2089
     58  OG        -0.2730   27.6000  -29.0750 O.3   127  SER127     -0.2183
     59  N          3.0780   23.2830  -32.1110 N.3   129  ALA129     -0.1245
     60  CA         3.3360   21.8640  -32.2880 C.3   129  ALA129      0.1562
     61  C          4.8230   21.5220  -32.2250 C.2   129  ALA129      0.2260
     62  O          5.1670   20.3460  -32.4220 O.2   129  ALA129     -0.2867
     63  CB         2.7390   21.2610  -33.5760 C.3   129  ALA129      0.0290
     64  N          5.3230   18.5740  -30.1580 N.3   132  THR132     -0.1218
     65  CA         5.0980   17.2040  -30.5770 C.3   132  THR132      0.1862
     66  C          6.4330   16.4860  -30.7950 C.2   132  THR132      0.2287
     67  O          6.5400   15.2490  -30.8080 O.2   132  THR132     -0.2866
     68  CB         4.2050   17.1140  -31.8370 C.3   132  THR132      0.1770
     69  OG1        4.8290   17.7830  -32.9350 O.3   132  THR132     -0.2211
     70  CG2        2.7960   17.6770  -31.6640 C.3   132  THR132      0.0375
     71  N         -6.8710   12.7000  -29.9160 N.3   242  VAL242     -0.1245
     72  CA        -7.5040   14.0040  -30.0240 C.3   242  VAL242      0.1561
     73  C         -6.6990   15.0850  -29.3200 C.2   242  VAL242      0.2260
     74  O         -6.7100   16.2170  -29.8110 O.2   242  VAL242     -0.2867
     75  CB        -8.9500   13.9290  -29.5010 C.3   242  VAL242      0.0252
     76  CG1       -9.5740   15.3150  -29.3600 C.3   242  VAL242      0.0019
     77  CG2       -9.7550   13.1070  -30.5490 C.3   242  VAL242      0.0019
     78  N         -3.6060   15.6460  -29.8310 N.3   244  ILE244     -0.1231
     79  CA        -2.5970   16.0260  -30.8000 C.3   244  ILE244      0.1692
     80  C         -3.0900   17.3170  -31.4580 C.2   244  ILE244      0.2592
     81  O         -4.2620   17.4880  -31.7480 O.2   244  ILE244     -0.2718
     82  CB        -2.3440   14.9740  -31.8910 C.3   244  ILE244      0.0266
     83  CG1       -1.8150   13.6560  -31.2550 C.3   244  ILE244      0.0019
     84  CG2       -1.2630   15.4740  -32.8410 C.3   244  ILE244      0.0020
     85  CD1       -1.8940   12.5020  -32.2690 C.3   244  ILE244      0.0001
     86  N         -2.2060   18.3280  -31.4280 N.am  245  ASN245     -0.1960
     87  CA        -2.5230   19.5830  -32.0860 C.3   245  ASN245      0.1819
     88  C         -3.2380   19.4280  -33.4300 C.2   245  ASN245      0.2621
     89  O         -2.7670   18.6120  -34.2490 O.2   245  ASN245     -0.2715
     90  CB        -1.2000   20.2910  -32.4220 C.3   245  ASN245      0.1195
     91  CG        -0.4540   20.7120  -31.1860 C.2   245  ASN245      0.2630
     92  OD1       -0.3210   19.8760  -30.2830 O.2   245  ASN245     -0.2716
     93  ND2       -0.0250   21.9850  -31.1700 N.am  245  ASN245     -0.0877
     94  N         -4.3060   20.1880  -33.5960 N.am  246  ALA246     -0.1963
     95  CA        -5.1060   20.2050  -34.8330 C.3   246  ALA246      0.1728
     96  C         -6.0160   19.0190  -35.0360 C.2   246  ALA246      0.2616
     97  O         -6.8220   19.0540  -35.9930 O.2   246  ALA246     -0.2715
     98  CB        -4.2520   20.4490  -36.0830 C.3   246  ALA246      0.0334
     99  N         -6.0210   18.0400  -34.1060 N.am  247  PHE247     -0.1960
    100  CA        -6.8480   16.8620  -34.3720 C.3   247  PHE247      0.1771
    101  C         -8.2880   17.1510  -33.9260 C.2   247  PHE247      0.2619
    102  O         -8.4270   17.6940  -32.8070 O.2   247  PHE247     -0.2715
    103  CB        -6.2680   15.6220  -33.7000 C.3   247  PHE247      0.0574
    104  CG        -5.2060   14.9220  -34.5690 C.ar  247  PHE247     -0.0200
    105  CD1       -4.0580   15.5470  -34.9770 C.ar  247  PHE247     -0.0042
    106  CD2       -5.4240   13.6130  -34.9550 C.ar  247  PHE247     -0.0042
    107  CE1       -3.1310   14.8700  -35.7500 C.ar  247  PHE247     -0.0003
    108  CE2       -4.5030   12.9210  -35.7350 C.ar  247  PHE247     -0.0003
    109  CZ        -3.3300   13.5540  -36.1360 C.ar  247  PHE247     -0.0000
    110  N         -9.2660   16.7920  -34.7580 N.am  248  LYS248     -0.1977
    111  CA       -10.6580   17.0400  -34.3510 C.3   248  LYS248      0.1596
    112  C        -11.5160   15.8070  -34.2390 C.2   248  LYS248      0.2287
    113  O        -12.7370   15.9340  -34.1640 O.2   248  LYS248     -0.2864
    114  CB       -11.3190   18.0420  -35.3460 C.3   248  LYS248      0.0298
    115  CG       -10.4740   19.3160  -35.4560 C.3   248  LYS248      0.0038
    116  CD       -10.5420   20.1770  -34.2310 C.3   248  LYS248      0.0206
    117  CE       -11.8380   20.9110  -34.0340 C.3   248  LYS248      0.1093
    118  NZ       -11.7920   21.6820  -32.7530 N.3   248  LYS248     -0.1314
    119  N         -7.2490   18.8170  -38.7640 N.3   302  LYS302     -0.1245
    120  CA        -7.8270   19.9390  -39.5080 C.3   302  LYS302      0.1561
    121  C         -6.6730   20.6310  -40.2320 C.2   302  LYS302      0.2260
    122  O         -5.5150   20.5250  -39.8050 O.2   302  LYS302     -0.2867
    123  CB        -8.5170   20.8970  -38.5460 C.3   302  LYS302      0.0271
    124  CG        -7.5910   21.8460  -37.8070 C.3   302  LYS302      0.0035
    125  CD        -8.3360   22.4570  -36.5790 C.3   302  LYS302      0.0206
    126  CE        -7.5840   23.7540  -36.2450 C.3   302  LYS302      0.1093
    127  NZ        -7.8940   24.2840  -34.8800 N.3   302  LYS302     -0.1314
    128  N         -3.8900   23.3590  -41.0880 N.3   304  ILE304     -0.1231
    129  CA        -3.1130   24.2860  -40.2670 C.3   304  ILE304      0.1678
    130  C         -3.8580   25.6180  -40.2040 C.2   304  ILE304      0.2434
    131  O         -4.2510   26.1490  -41.2280 O.2   304  ILE304     -0.2733
    132  CB        -1.7480   24.4930  -40.9820 C.3   304  ILE304      0.0265
    133  CG1       -0.8440   23.2750  -40.7060 C.3   304  ILE304      0.0019
    134  CG2       -1.0700   25.7890  -40.5810 C.3   304  ILE304      0.0020
    135  CD1        0.4000   23.3480  -41.5870 C.3   304  ILE304      0.0001
    136  N         -3.9730   26.2400  -39.0480 N.am  305  PRO305     -0.2718
    137  CA        -4.7370   27.4700  -38.9160 C.3   305  PRO305      0.1535
    138  C         -4.0670   28.6680  -39.5710 C.2   305  PRO305      0.2599
    139  O         -4.7030   29.5610  -40.1090 O.2   305  PRO305     -0.2715
    140  CB        -4.8830   27.6610  -37.4260 C.3   305  PRO305      0.0310
    141  CG        -4.5740   26.3490  -36.8020 C.3   305  PRO305      0.0237
    142  CD        -3.6280   25.6300  -37.7360 C.3   305  PRO305      0.0939
    143  N         -2.7590   28.7560  -39.4880 N.am  306  THR306     -0.1951
    144  CA        -2.0310   29.9030  -40.0040 C.3   306  THR306      0.1897
    145  C         -2.1670   29.9720  -41.5200 C.2   306  THR306      0.2313
    146  O         -1.6460   29.0860  -42.1850 O.2   306  THR306     -0.2863
    147  CB        -0.5430   29.9050  -39.6600 C.3   306  THR306      0.1794
    148  OG1       -0.4330   29.8620  -38.2340 O.3   306  THR306     -0.2208
    149  CG2        0.0860   31.2080  -40.1760 C.3   306  THR306      0.0378
    150  N          5.3740   32.2370  -39.0100 N.3   327  ARG327     -0.1231
    151  CA         5.9100   31.2450  -39.9510 C.3   327  ARG327      0.1694
    152  C          5.1420   29.9280  -39.8640 C.2   327  ARG327      0.2593
    153  O          4.7980   29.5910  -38.7280 O.2   327  ARG327     -0.2718
    154  CB         7.4030   31.1110  -39.6270 C.3   327  ARG327      0.0321
    155  CG         8.1500   30.1920  -40.5750 C.3   327  ARG327      0.0489
    156  CD         9.6430   30.1550  -40.3070 C.3   327  ARG327      0.2205
    157  NE         9.9980   29.8910  -38.9230 N.pl3 327  ARG327     -0.0865
    158  CZ        11.1130   30.2210  -38.2800 C.cat 327  ARG327      0.5346
    159  NH1       12.0750   30.8860  -38.9130 N.pl3 327  ARG327      0.1354
    160  NH2       11.2980   29.9370  -36.9860 N.pl3 327  ARG327      0.1354
    161  N          4.8570   29.2130  -40.9260 N.am  328  SER328     -0.1938
    162  CA         4.0640   27.9790  -41.0300 C.3   328  SER328      0.2055
    163  C          4.1390   27.3270  -42.4090 C.2   328  SER328      0.2643
    164  O          4.8100   27.9360  -43.2670 O.2   328  SER328     -0.2714
    165  CB         2.5800   28.3040  -40.7720 C.3   328  SER328      0.2130
    166  OG         2.3650   28.7340  -39.4300 O.3   328  SER328     -0.2179
    167  N          3.4060   26.2990  -42.7970 N.am  329  ASP329     -0.1971
    168  CA         3.4290   25.6200  -44.1040 C.3   329  ASP329      0.1709
    169  C          2.0690   25.3720  -44.7270 C.2   329  ASP329      0.2293
    170  O          1.0880   25.5390  -43.9910 O.2   329  ASP329     -0.2864
    171  CB         4.0040   24.2400  -43.6700 C.3   329  ASP329      0.1436
    172  CG         5.4020   24.3230  -43.1060 C.2   329  ASP329      0.3671
    173  OD1        6.1410   25.1790  -43.6410 O.co2 329  ASP329     -0.2456
    174  OD2        5.8110   23.5610  -42.1980 O.co2 329  ASP329     -0.2456
    175  N          0.9660   19.7950  -42.7080 N.3   332  ALA332     -0.1245
    176  CA         1.9550   19.0440  -41.9200 C.3   332  ALA332      0.1562
    177  C          1.3820   17.6450  -41.6340 C.2   332  ALA332      0.2260
    178  O          1.5930   17.0480  -40.5810 O.2   332  ALA332     -0.2867
    179  CB         2.2850   19.7530  -40.6250 C.3   332  ALA332      0.0290
    180  N          3.7420   14.5600  -41.0570 N.3   335  ALA335     -0.1231
    181  CA         4.3880   14.7340  -39.7750 C.3   335  ALA335      0.1694
    182  C          3.3750   14.4080  -38.6540 C.2   335  ALA335      0.2591
    183  O          3.6660   13.7280  -37.6980 O.2   335  ALA335     -0.2718
    184  CB         4.9000   16.1530  -39.4930 C.3   335  ALA335      0.0304
    185  N          2.1330   14.8360  -38.8600 N.am  336  ALA336     -0.1980
    186  CA         1.1100   14.5530  -37.8420 C.3   336  ALA336      0.1597
    187  C          0.8840   13.0530  -37.6720 C.2   336  ALA336      0.2287
    188  O          0.6320   12.5910  -36.5320 O.2   336  ALA336     -0.2864
    189  CB        -0.1520   15.2720  -38.2520 C.3   336  ALA336      0.0319
    190  N          3.5020   11.8170  -35.3380 N.3   338  VAL338     -0.1245
    191  CA         3.1130   12.1100  -33.9410 C.3   338  VAL338      0.1561
    192  C          2.0160   11.1170  -33.5300 C.2   338  VAL338      0.2260
    193  O          1.9690   10.6160  -32.4180 O.2   338  VAL338     -0.2867
    194  CB         2.6010   13.5580  -33.8160 C.3   338  VAL338      0.0252
    195  CG1        2.0560   13.8940  -32.4390 C.3   338  VAL338      0.0019
    196  CG2        3.7190   14.5210  -34.2210 C.3   338  VAL338      0.0019
@<TRIPOS>BOND
     1    15    14    2
     2    12    13    1
     3    14    13    1
     4   169   168    1
     5   169   170    2
     6    13    16    1
     7   168   171    1
     8   168   167    1
     9   171   172    1
    10   173   172   ar
    11    16    17    1
    12   164   163    2
    13   172   174   ar
    14   167   163   am
    15    17    18    1
    16   175   176    1
    17   163   162    1
    18   146   145    2
    19   176   177    1
    20   176   179    1
    21   177   178    2
    22   135   133    1
    23   145   144    1
    24    18    19    1
    25   131   130    2
    26   128   129    1
    27   180   181    1
    28   162   161    1
    29   162   165    1
    30   132   133    1
    31   132   134    1
    32   132   129    1
    33   161   152   am
    34   165   166    1
    35   155   156    1
    36   155   154    1
    37    19    20    2
    38   156   157    1
    39   129   130    1
    40   121   122    2
    41   121   120    1
    42   130   136   am
    43   149   147    1
    44   139   138    2
    45   144   147    1
    46   144   143    1
    47   151   152    1
    48   151   154    1
    49   151   150    1
    50   152   153    2
    51   181   184    1
    52   181   182    1
    53   147   148    1
    54   138   143   am
    55   138   137    1
    56   120   119    1
    57   120   123    1
    58    20    21    1
    59    20    22    1
    60   136   137    1
    61   136   142    1
    62   157   158    2
    63   137   140    1
    64   159   158    1
    65   185   182   am
    66   185   186    1
    67   182   183    2
    68   123   124    1
    69     4     3    2
    70     3     2    1
    71   158   160    1
    72   189   186    1
    73     1     2    1
    74   186   187    1
    75   124   125    1
    76   142   141    1
    77     2     5    1
    78   187   188    2
    79   140   141    1
    80   125   126    1
    81   126   127    1
    82     5     6    1
    83   109   107   ar
    84   109   108   ar
    85    98    95    1
    86    97    96    2
    87    27    28    1
    88    27    24    1
    89   107   105   ar
    90   108   106   ar
    91     6     7    1
    92    29    28    1
    93    29    30    1
    94   115   114    1
    95   115   116    1
    96   114   111    1
    97   190   191    1
    98    34    35    1
    99    35    36    1
   100    24    25    1
   101    24    23    1
   102    32    31    1
   103    96    95    1
   104    96    99   am
   105    11     9    1
   106    25    26    2
   107   105   104   ar
   108   106   104   ar
   109    10     9    1
   110    95    94    1
   111     9     8    2
   112   110   111    1
   113   110   101   am
   114   104   103    1
   115     8     7    1
   116    30    31    2
   117   100    99    1
   118   100   101    1
   119   100   103    1
   120   111   112    1
   121    36    37    2
   122    36    38   am
   123    89    88    2
   124   112   113    2
   125   116   117    1
   126    45    47   ar
   127    45    43   ar
   128   196   194    1
   129    31    33    1
   130   117   118    1
   131   191   194    1
   132   191   192    1
   133   101   102    2
   134   194   195    1
   135    38    39    1
   136    94    88   am
   137    63    60    1
   138    47    46   ar
   139   192   193    2
   140    88    87    1
   141    42    43    1
   142    42    39    1
   143    43    44   ar
   144    69    68    1
   145    84    82    1
   146    39    40    1
   147    90    87    1
   148    90    91    1
   149    62    61    2
   150    60    61    1
   151    60    59    1
   152    85    83    1
   153    46    44   ar
   154    87    86    1
   155    82    83    1
   156    82    79    1
   157    68    70    1
   158    68    65    1
   159    81    80    2
   160    80    86   am
   161    80    79    1
   162    40    41    2
   163    40    48   am
   164    91    93   am
   165    91    92    2
   166    67    66    2
   167    79    78    1
   168    66    65    1
   169    65    64    1
   170    77    75    1
   171    48    49    1
   172    72    71    1
   173    72    75    1
   174    72    73    1
   175    74    73    2
   176    56    55    2
   177    75    76    1
   178    55    54    1
   179    58    57    1
   180    49    50    1
   181    49    52    1
   182    50    51    2
   183    57    54    1
   184    54    53    1
