@<TRIPOS>MOLECULE
tmp/1qxoD03.pdb
 156 146 0 0 0
SMALL
GASTEIGER

@<TRIPOS>ATOM
      1  N          8.5100   26.9280  -28.3200 N.3     8  SER8       -0.1202
      2  CA         8.9340   26.8220  -29.6950 C.3     8  SER8        0.2020
      3  C         10.2790   27.5470  -29.9140 C.2     8  SER8        0.2618
      4  O         11.1480   26.9420  -30.5240 O.2     8  SER8       -0.2717
      5  CB         7.9170   27.4580  -30.6670 C.3     8  SER8        0.2103
      6  OG         8.4030   27.1780  -31.9760 O.3     8  SER8       -0.2182
      7  N         10.3040   28.7940  -29.4170 N.am    9  HIS9       -0.1975
      8  CA        11.5350   29.5560  -29.5870 C.3     9  HIS9        0.1656
      9  C         12.3210   29.7260  -28.2800 C.2     9  HIS9        0.2291
     10  O         13.3380   30.4350  -28.2900 O.2     9  HIS9       -0.2864
     11  CB        11.2590   30.9190  -30.2700 C.3     9  HIS9        0.0771
     12  CG        10.4180   30.7000  -31.5060 C.ar    9  HIS9        0.0820
     13  ND1        9.1120   31.1030  -31.5950 N.ar    9  HIS9       -0.2267
     14  CD2       10.7760   30.1230  -32.6830 C.ar    9  HIS9        0.1154
     15  CE1        8.6660   30.7390  -32.8020 C.ar    9  HIS9        0.1986
     16  NE2        9.6570   30.1360  -33.4700 N.ar    9  HIS9       -0.2212
     17  N          9.5760   12.8980  -38.0610 N.3    38  ARG38      -0.1245
     18  CA         8.5950   13.9320  -37.7020 C.3    38  ARG38       0.1563
     19  C          8.8480   15.2800  -38.3750 C.2    38  ARG38       0.2260
     20  O          7.9870   16.1510  -38.5060 O.2    38  ARG38      -0.2867
     21  CB         8.6190   14.1390  -36.1590 C.3    38  ARG38       0.0307
     22  CG         7.4030   14.9910  -35.6910 C.3    38  ARG38       0.0489
     23  CD         7.7030   15.5430  -34.2630 C.3    38  ARG38       0.2205
     24  NE         8.6680   16.6000  -34.4700 N.pl3  38  ARG38      -0.0865
     25  CZ         8.4450   17.8450  -34.8000 C.cat  38  ARG38       0.5346
     26  NH1        7.1970   18.3110  -34.9130 N.pl3  38  ARG38       0.1354
     27  NH2        9.4480   18.6470  -35.0280 N.pl3  38  ARG38       0.1354
     28  N          6.2720   20.7360  -45.6270 N.3    44  ARG44      -0.1245
     29  CA         6.8530   21.4380  -44.4980 C.3    44  ARG44       0.1563
     30  C          8.0940   22.1720  -44.9940 C.2    44  ARG44       0.2260
     31  O          8.8060   21.6320  -45.8510 O.2    44  ARG44      -0.2867
     32  CB         7.2420   20.5070  -43.3410 C.3    44  ARG44       0.0307
     33  CG         6.0270   19.7470  -42.7960 C.3    44  ARG44       0.0489
     34  CD         6.2840   19.2120  -41.3730 C.3    44  ARG44       0.2205
     35  NE         6.0830   20.3640  -40.4620 N.pl3  44  ARG44      -0.0865
     36  CZ         6.4050   20.3500  -39.1610 C.cat  44  ARG44       0.5346
     37  NH1        6.9610   19.2730  -38.6250 N.pl3  44  ARG44       0.1354
     38  NH2        6.1800   21.4540  -38.4730 N.pl3  44  ARG44       0.1354
     39  N         11.2010   26.4070  -40.6490 N.3    47  ARG47      -0.1245
     40  CA        11.8790   25.9580  -39.4240 C.3    47  ARG47       0.1563
     41  C         12.4910   24.5760  -39.6330 C.2    47  ARG47       0.2260
     42  O         13.5710   24.3100  -39.0860 O.2    47  ARG47      -0.2867
     43  CB        10.8970   26.0280  -38.2470 C.3    47  ARG47       0.0307
     44  CG        11.4100   25.2310  -37.0650 C.3    47  ARG47       0.0489
     45  CD        12.3900   26.0120  -36.1820 C.3    47  ARG47       0.2205
     46  NE        11.5390   26.4920  -35.1380 N.pl3  47  ARG47      -0.0865
     47  CZ        11.5080   26.5470  -33.8340 C.cat  47  ARG47       0.5346
     48  NH1       12.4570   26.0910  -33.0490 N.pl3  47  ARG47       0.1354
     49  NH2       10.3890   27.1260  -33.4340 N.pl3  47  ARG47       0.1354
     50  N         -4.7210   34.5030  -33.9210 N.3   103  ARG103     -0.1245
     51  CA        -5.0950   33.8370  -35.1620 C.3   103  ARG103      0.1563
     52  C         -6.2340   32.8520  -34.9790 C.2   103  ARG103      0.2260
     53  O         -6.2870   32.0400  -34.0750 O.2   103  ARG103     -0.2867
     54  CB        -3.9030   33.3160  -35.8940 C.3   103  ARG103      0.0307
     55  CG        -3.1330   32.2060  -35.2800 C.3   103  ARG103      0.0489
     56  CD        -1.6250   32.5340  -35.6290 C.3   103  ARG103      0.2205
     57  NE        -0.9830   32.0170  -34.4470 N.pl3 103  ARG103     -0.0865
     58  CZ         0.0230   31.2460  -34.1510 C.cat 103  ARG103      0.5346
     59  NH1        0.7670   30.7430  -35.1230 N.pl3 103  ARG103      0.1354
     60  NH2        0.2670   30.9960  -32.8590 N.pl3 103  ARG103      0.1354
     61  N         -6.2670   29.0570  -33.7320 N.3   106  HIS106     -0.1241
     62  CA        -5.1510   28.6840  -32.8320 C.3   106  HIS106      0.1621
     63  C         -5.4850   28.9380  -31.3740 C.2   106  HIS106      0.2264
     64  O         -6.5790   29.4520  -31.0800 O.2   106  HIS106     -0.2867
     65  CB        -3.9480   29.4180  -33.3750 C.3   106  HIS106      0.0745
     66  CG        -2.6610   28.6660  -33.2850 C.ar  106  HIS106      0.0817
     67  ND1       -2.1190   28.3370  -32.0460 N.ar  106  HIS106     -0.2268
     68  CD2       -1.8570   28.1650  -34.2280 C.ar  106  HIS106      0.1154
     69  CE1       -0.9820   27.6850  -32.2420 C.ar  106  HIS106      0.1986
     70  NE2       -0.8090   27.5950  -33.5510 N.ar  106  HIS106     -0.2212
     71  N          1.3810   31.2680  -27.7300 N.3   124  LEU124     -0.1245
     72  CA         1.8920   30.6810  -28.9590 C.3   124  LEU124      0.1561
     73  C          3.0490   29.7610  -28.6720 C.2   124  LEU124      0.2260
     74  O          3.1500   28.6780  -29.2320 O.2   124  LEU124     -0.2867
     75  CB         2.2990   31.7740  -29.9690 C.3   124  LEU124      0.0270
     76  CG         3.0460   31.4040  -31.2490 C.3   124  LEU124      0.0019
     77  CD1        2.9490   32.5000  -32.3140 C.3   124  LEU124      0.0001
     78  CD2        4.5270   31.1290  -31.0010 C.3   124  LEU124      0.0001
     79  N          2.3680   25.8540  -29.5930 N.3   128  SER128     -0.1202
     80  CA         2.9050   25.3840  -30.8870 C.3   128  SER128      0.2020
     81  C          3.1890   23.8920  -30.9310 C.2   128  SER128      0.2619
     82  O          3.7450   23.3330  -29.9840 O.2   128  SER128     -0.2717
     83  CB         4.2000   26.1760  -31.1920 C.3   128  SER128      0.2103
     84  OG         5.0220   25.4380  -32.0740 O.3   128  SER128     -0.2182
     85  N          3.0780   23.2830  -32.1110 N.am  129  ALA129     -0.1965
     86  CA         3.3360   21.8640  -32.2880 C.3   129  ALA129      0.1728
     87  C          4.8230   21.5220  -32.2250 C.2   129  ALA129      0.2616
     88  O          5.1670   20.3460  -32.4220 O.2   129  ALA129     -0.2715
     89  CB         2.7390   21.2610  -33.5760 C.3   129  ALA129      0.0334
     90  N          5.7170   22.4650  -32.0520 N.am  130  ARG130     -0.1977
     91  CA         7.1390   22.1210  -31.7990 C.3   130  ARG130      0.1597
     92  C          7.1750   21.0830  -30.6680 C.2   130  ARG130      0.2287
     93  O          7.9880   20.1580  -30.6200 O.2   130  ARG130     -0.2864
     94  CB         7.8610   23.3860  -31.3180 C.3   130  ARG130      0.0334
     95  CG         9.3690   23.1050  -30.9750 C.3   130  ARG130      0.0492
     96  CD        10.1850   22.9820  -32.2800 C.3   130  ARG130      0.2205
     97  NE        11.6320   22.6580  -31.9210 N.pl3 130  ARG130     -0.0865
     98  CZ        12.3130   21.7200  -32.5540 C.cat 130  ARG130      0.5346
     99  NH1       11.7380   21.0920  -33.5790 N.pl3 130  ARG130      0.1354
    100  NH2       13.5780   21.3460  -32.3120 N.pl3 130  ARG130      0.1354
    101  N          7.4980   17.2410  -30.9240 N.3   133  THR133     -0.1218
    102  CA         8.8510   16.6740  -31.0340 C.3   133  THR133      0.1862
    103  C          9.1490   15.7880  -29.7960 C.2   133  THR133      0.2287
    104  O          9.6540   14.6420  -29.8690 O.2   133  THR133     -0.2866
    105  CB         9.8800   17.8150  -31.0620 C.3   133  THR133      0.1770
    106  OG1        9.6040   18.7840  -32.1040 O.3   133  THR133     -0.2211
    107  CG2       11.2960   17.2640  -31.1950 C.3   133  THR133      0.0375
    108  N         -2.2060   18.3280  -31.4280 N.3   245  ASN245     -0.1240
    109  CA        -2.5230   19.5830  -32.0860 C.3   245  ASN245      0.1653
    110  C         -3.2380   19.4280  -33.4300 C.2   245  ASN245      0.2266
    111  O         -2.7670   18.6120  -34.2490 O.2   245  ASN245     -0.2867
    112  CB        -1.2000   20.2910  -32.4220 C.3   245  ASN245      0.1155
    113  CG        -0.4540   20.7120  -31.1860 C.2   245  ASN245      0.2627
    114  OD1       -0.3210   19.8760  -30.2830 O.2   245  ASN245     -0.2716
    115  ND2       -0.0250   21.9850  -31.1700 N.am  245  ASN245     -0.0877
    116  N         -2.7590   28.7560  -39.4880 N.3   306  THR306     -0.1218
    117  CA        -2.0310   29.9030  -40.0040 C.3   306  THR306      0.1862
    118  C         -2.1670   29.9720  -41.5200 C.2   306  THR306      0.2287
    119  O         -1.6460   29.0860  -42.1850 O.2   306  THR306     -0.2866
    120  CB        -0.5430   29.9050  -39.6600 C.3   306  THR306      0.1770
    121  OG1       -0.4330   29.8620  -38.2340 O.3   306  THR306     -0.2211
    122  CG2        0.0860   31.2080  -40.1760 C.3   306  THR306      0.0375
    123  N          2.3290   34.1590  -38.6580 N.3   326  GLU326     -0.1231
    124  CA         3.5560   33.6170  -38.0620 C.3   326  GLU326      0.1699
    125  C          4.0910   32.5770  -39.0580 C.2   326  GLU326      0.2592
    126  O          3.3250   32.1650  -39.9350 O.2   326  GLU326     -0.2718
    127  CB         3.3420   33.0200  -36.6850 C.3   326  GLU326      0.0402
    128  CG         2.8040   33.9740  -35.6380 C.3   326  GLU326      0.1161
    129  CD         3.7330   35.1330  -35.3100 C.2   326  GLU326      0.3649
    130  OE1        4.9420   34.8940  -35.1180 O.co2 326  GLU326     -0.2457
    131  OE2        3.2540   36.2930  -35.2220 O.co2 326  GLU326     -0.2457
    132  N          5.3740   32.2370  -39.0100 N.am  327  ARG327     -0.1966
    133  CA         5.9100   31.2450  -39.9510 C.3   327  ARG327      0.1729
    134  C          5.1420   29.9280  -39.8640 C.2   327  ARG327      0.2617
    135  O          4.7980   29.5910  -38.7280 O.2   327  ARG327     -0.2715
    136  CB         7.4030   31.1110  -39.6270 C.3   327  ARG327      0.0348
    137  CG         8.1500   30.1920  -40.5750 C.3   327  ARG327      0.0492
    138  CD         9.6430   30.1550  -40.3070 C.3   327  ARG327      0.2205
    139  NE         9.9980   29.8910  -38.9230 N.pl3 327  ARG327     -0.0865
    140  CZ        11.1130   30.2210  -38.2800 C.cat 327  ARG327      0.5346
    141  NH1       12.0750   30.8860  -38.9130 N.pl3 327  ARG327      0.1354
    142  NH2       11.2980   29.9370  -36.9860 N.pl3 327  ARG327      0.1354
    143  N          4.8570   29.2130  -40.9260 N.am  328  SER328     -0.1936
    144  CA         4.0640   27.9790  -41.0300 C.3   328  SER328      0.2055
    145  C          4.1390   27.3270  -42.4090 C.2   328  SER328      0.2643
    146  O          4.8100   27.9360  -43.2670 O.2   328  SER328     -0.2714
    147  CB         2.5800   28.3040  -40.7720 C.3   328  SER328      0.2130
    148  OG         2.3650   28.7340  -39.4300 O.3   328  SER328     -0.2179
    149  N          3.4060   26.2990  -42.7970 N.am  329  ASP329     -0.1971
    150  CA         3.4290   25.6200  -44.1040 C.3   329  ASP329      0.1709
    151  C          2.0690   25.3720  -44.7270 C.2   329  ASP329      0.2293
    152  O          1.0880   25.5390  -43.9910 O.2   329  ASP329     -0.2864
    153  CB         4.0040   24.2400  -43.6700 C.3   329  ASP329      0.1436
    154  CG         5.4020   24.3230  -43.1060 C.2   329  ASP329      0.3671
    155  OD1        6.1410   25.1790  -43.6410 O.co2 329  ASP329     -0.2456
    156  OD2        5.8110   23.5610  -42.1980 O.co2 329  ASP329     -0.2456
@<TRIPOS>BOND
     1    31    30    2
     2    28    29    1
     3    30    29    1
     4   151   150    1
     5   151   152    2
     6    29    32    1
     7   150   153    1
     8   150   149    1
     9   153   154    1
    10   155   154   ar
    11    32    33    1
    12   146   145    2
    13   154   156   ar
    14   149   145   am
    15    33    34    1
    16   145   144    1
    17   119   118    2
    18   118   117    1
    19    34    35    1
    20   144   143    1
    21   144   147    1
    22   143   134   am
    23   147   148    1
    24    39    40    1
    25   137   138    1
    26   137   136    1
    27    35    36    2
    28   138   139    1
    29   122   120    1
    30   117   120    1
    31   117   116    1
    32   133   134    1
    33   133   136    1
    34   133   132    1
    35   126   125    2
    36   134   135    2
    37   120   121    1
    38    41    40    1
    39    41    42    2
    40    40    43    1
    41    36    37    1
    42    36    38    1
    43   125   132   am
    44   125   124    1
    45   139   140    2
    46   141   140    1
    47   123   124    1
    48    20    19    2
    49    19    18    1
    50   140   142    1
    51    43    44    1
    52   124   127    1
    53    17    18    1
    54    18    21    1
    55    44    45    1
    56   127   128    1
    57    45    46    1
    58    21    22    1
    59    54    55    1
    60    54    51    1
    61    22    23    1
    62   128   129    1
    63    56    55    1
    64    56    57    1
    65   129   131   ar
    66   129   130   ar
    67    51    52    1
    68    51    50    1
    69    46    47    2
    70    59    58    1
    71    27    25    1
    72    52    53    2
    73    26    25    1
    74    25    24    2
    75    24    23    1
    76    57    58    2
    77   111   110    2
    78    68    70   ar
    79    68    66   ar
    80    58    60    1
    81    47    49    1
    82    47    48    1
    83    61    62    1
    84    99    98    1
    85    89    86    1
    86    70    69   ar
    87    16    15   ar
    88    16    14   ar
    89   110   109    1
    90    65    66    1
    91    65    62    1
    92    66    67   ar
    93    62    63    1
    94    15    13   ar
    95    14    12   ar
    96    98   100    1
    97    98    97    2
    98   112   109    1
    99   112   113    1
   100    88    87    2
   101    77    76    1
   102    86    87    1
   103    86    85    1
   104    96    97    1
   105    96    95    1
   106    69    67   ar
   107    87    90   am
   108    85    81   am
   109   106   105    1
   110   109   108    1
   111    84    83    1
   112    90    91    1
   113     6     5    1
   114    91    94    1
   115    91    92    1
   116    13    12   ar
   117    12    11    1
   118    63    64    2
   119    94    95    1
   120    76    78    1
   121    76    75    1
   122   107   105    1
   123    83    80    1
   124   113   115   am
   125   113   114    2
   126   105   102    1
   127   102   101    1
   128   102   103    1
   129    81    80    1
   130    81    82    2
   131    80    79    1
   132    92    93    2
   133     5     2    1
   134     4     3    2
   135    11     8    1
   136    75    72    1
   137     3     2    1
   138     3     7   am
   139   104   103    2
   140     2     1    1
   141     8     7    1
   142     8     9    1
   143    74    73    2
   144    72    73    1
   145    72    71    1
   146    10     9    2
