@<TRIPOS>MOLECULE
tmp/1qxsC01.pdb
 104 97 0 0 0
SMALL
GASTEIGER

@<TRIPOS>ATOM
      1  N         26.9930  -22.8620   16.9200 N.3   136  PRO136     -0.2116
      2  CA        26.8540  -23.8040   15.8060 C.3   136  PRO136      0.1372
      3  C         28.0860  -23.7690   14.8930 C.2   136  PRO136      0.2244
      4  O         28.5480  -22.6990   14.4900 O.2   136  PRO136     -0.2868
      5  CB        25.5940  -23.3080   15.1000 C.3   136  PRO136      0.0268
      6  CG        24.7890  -22.7470   16.2200 C.3   136  PRO136      0.0207
      7  CD        25.8220  -21.9730   17.0000 C.3   136  PRO136      0.0892
      8  N         23.8700  -24.2040   19.7550 N.3   165  SER165     -0.1202
      9  CA        23.4280  -22.8530   20.0880 C.3   165  SER165      0.2020
     10  C         22.5120  -22.8260   21.3010 C.2   165  SER165      0.2619
     11  O         21.9620  -23.8600   21.7000 O.2   165  SER165     -0.2717
     12  CB        22.7070  -22.2230   18.8980 C.3   165  SER165      0.2103
     13  OG        21.5320  -22.9440   18.5870 O.3   165  SER165     -0.2182
     14  N         22.3430  -21.6300   21.8670 N.am  166  CYS166     -0.1955
     15  CA        21.5090  -21.4340   23.0490 C.3   166  CYS166      0.1843
     16  C         20.0840  -21.9110   22.8100 C.2   166  CYS166      0.2626
     17  O         19.4870  -22.5750   23.6530 O.2   166  CYS166     -0.2714
     18  CB        21.5230  -19.9450   23.4870 C.3   166  CYS166      0.0997
     19  SG        21.4470  -18.6650   22.1740 S.3   166  CYS166     -0.0797
     20  N         19.5560  -21.5780   21.6410 N.am  167  THR167     -0.1950
     21  CA        18.2050  -21.9470   21.2650 C.3   167  THR167      0.1897
     22  C         18.1050  -23.4490   21.0050 C.2   167  THR167      0.2313
     23  O         17.1170  -24.0830   21.3780 O.2   167  THR167     -0.2863
     24  CB        17.7780  -21.1580   20.0230 C.3   167  THR167      0.1794
     25  OG1       17.9410  -19.7540   20.2780 O.3   167  THR167     -0.2208
     26  CG2       16.3310  -21.4420   19.6770 C.3   167  THR167      0.0378
     27  N         11.1850  -18.1690   18.4910 N.3   192  THR192     -0.1218
     28  CA        11.8390  -17.8500   19.7520 C.3   192  THR192      0.1862
     29  C         11.8490  -16.3440   20.0150 C.2   192  THR192      0.2287
     30  O         12.5260  -15.5900   19.3160 O.2   192  THR192     -0.2866
     31  CB        13.2860  -18.3710   19.8040 C.3   192  THR192      0.1770
     32  OG1       13.8630  -18.0170   21.0640 O.3   192  THR192     -0.2211
     33  CG2       14.1170  -17.7680   18.7050 C.3   192  THR192      0.0375
     34  N         13.3690  -13.7860   21.3320 N.3   194  HIS194     -0.1241
     35  CA        14.7350  -13.6710   21.8350 C.3   194  HIS194      0.1621
     36  C         15.2310  -12.2800   22.2170 C.2   194  HIS194      0.2264
     37  O         15.0500  -11.3190   21.4760 O.2   194  HIS194     -0.2867
     38  CB        15.6610  -14.2660   20.7820 C.3   194  HIS194      0.0745
     39  CG        16.9110  -14.8650   21.3360 C.ar  194  HIS194      0.0817
     40  ND1       18.0090  -14.1100   21.6930 N.ar  194  HIS194     -0.2268
     41  CD2       17.2410  -16.1520   21.5870 C.ar  194  HIS194      0.1154
     42  CE1       18.9630  -14.9060   22.1380 C.ar  194  HIS194      0.1986
     43  NE2       18.5210  -16.1510   22.0830 N.ar  194  HIS194     -0.2212
     44  N         21.2490   -9.3630   21.4290 N.3   197  THR197     -0.1203
     45  CA        22.6110   -9.7520   21.8100 C.3   197  THR197      0.1994
     46  C         23.6560   -8.7580   21.2800 C.2   197  THR197      0.2618
     47  O         23.3220   -7.7660   20.6310 O.2   197  THR197     -0.2717
     48  CB        23.0110  -11.1180   21.2260 C.3   197  THR197      0.1784
     49  OG1       23.1800  -10.9660   19.8180 O.3   197  THR197     -0.2211
     50  CG2       21.9690  -12.1730   21.4930 C.3   197  THR197      0.0376
     51  N         24.9250   -9.0550   21.5510 N.am  198  ALA198     -0.1965
     52  CA        26.0460   -8.2220   21.1260 C.3   198  ALA198      0.1728
     53  C         26.1580   -7.9540   19.6180 C.2   198  ALA198      0.2616
     54  O         26.7660   -6.9550   19.2130 O.2   198  ALA198     -0.2715
     55  CB        27.3460   -8.8230   21.6340 C.3   198  ALA198      0.0334
     56  N         25.5980   -8.8380   18.7960 N.am  199  THR199     -0.1951
     57  CA        25.6470   -8.6910   17.3430 C.3   199  THR199      0.1897
     58  C         24.7410   -7.5610   16.8780 C.2   199  THR199      0.2313
     59  O         24.9860   -6.9390   15.8470 O.2   199  THR199     -0.2863
     60  CB        25.2190  -10.0000   16.6260 C.3   199  THR199      0.1794
     61  OG1       23.8960  -10.3720   17.0310 O.3   199  THR199     -0.2208
     62  CG2       26.1470  -11.1370   16.9960 C.3   199  THR199      0.0378
     63  N         14.0400  -12.7140   12.4380 N.3   224  SER224     -0.1202
     64  CA        15.2570  -13.3280   11.9310 C.3   224  SER224      0.2020
     65  C         15.0920  -14.8220   11.7120 C.2   224  SER224      0.2619
     66  O         14.4090  -15.4940   12.4810 O.2   224  SER224     -0.2717
     67  CB        16.4060  -13.1020   12.9120 C.3   224  SER224      0.2103
     68  OG        17.5990  -13.7050   12.4340 O.3   224  SER224     -0.2182
     69  N         15.7110  -15.3440   10.6590 N.am  225  THR225     -0.1938
     70  CA        15.6440  -16.7740   10.4060 C.3   225  THR225      0.2028
     71  C         16.6610  -17.3750   11.3620 C.2   225  THR225      0.2642
     72  O         17.5950  -16.6920   11.7920 O.2   225  THR225     -0.2714
     73  CB        16.0590  -17.1480    8.9720 C.3   225  THR225      0.1808
     74  OG1       17.4420  -16.8430    8.7900 O.3   225  THR225     -0.2208
     75  CG2       15.2290  -16.3850    7.9440 C.3   225  THR225      0.0379
     76  N         16.4760  -18.6410   11.7080 N.am  226  THR226     -0.1950
     77  CA        17.3930  -19.3050   12.6160 C.3   226  THR226      0.1897
     78  C         17.5620  -20.7430   12.1570 C.2   226  THR226      0.2313
     79  O         16.6560  -21.3170   11.5480 O.2   226  THR226     -0.2863
     80  CB        16.8540  -19.2810   14.0600 C.3   226  THR226      0.1794
     81  OG1       17.9260  -19.5490   14.9690 O.3   226  THR226     -0.2208
     82  CG2       15.7620  -20.3270   14.2510 C.3   226  THR226      0.0378
     83  N         18.4550  -23.0430   14.3510 N.3   228  ALA228     -0.1245
     84  CA        18.3330  -23.7740   15.6080 C.3   228  ALA228      0.1562
     85  C         17.4240  -24.9960   15.5320 C.2   228  ALA228      0.2260
     86  O         17.8430  -26.0950   15.8860 O.2   228  ALA228     -0.2867
     87  CB        17.8560  -22.8370   16.7080 C.3   228  ALA228      0.0290
     88  N         13.0040  -16.3950   14.6660 N.3   247  SER247     -0.1217
     89  CA        13.2640  -15.6830   15.8980 C.3   247  SER247      0.1889
     90  C         12.8610  -14.2370   15.7910 C.2   247  SER247      0.2288
     91  O         13.0790  -13.5970   14.7740 O.2   247  SER247     -0.2866
     92  CB        14.7430  -15.7420   16.2450 C.3   247  SER247      0.2089
     93  OG        15.0840  -14.7390   17.1880 O.3   247  SER247     -0.2183
     94  N         13.7550  -11.0520   17.6640 N.3   249  ARG249     -0.1245
     95  CA        14.6180  -10.3870   18.6260 C.3   249  ARG249      0.1563
     96  C         13.8110   -9.2230   19.1850 C.2   249  ARG249      0.2260
     97  O         13.3470   -8.3840   18.4310 O.2   249  ARG249     -0.2867
     98  CB        15.9000   -9.9030   17.9320 C.3   249  ARG249      0.0307
     99  CG        16.8970  -11.0210   17.6240 C.3   249  ARG249      0.0489
    100  CD        17.0930  -11.8540   18.8810 C.3   249  ARG249      0.2205
    101  NE        18.2890  -12.6870   18.9200 N.pl3 249  ARG249     -0.0865
    102  CZ        19.5330  -12.2520   18.7290 C.cat 249  ARG249      0.5346
    103  NH1       19.7990  -10.9920   18.4550 N.pl3 249  ARG249      0.1354
    104  NH2       20.5390  -13.0820   18.8860 N.pl3 249  ARG249      0.1354
@<TRIPOS>BOND
     1    75    73    1
     2    74    73    1
     3    73    70    1
     4    70    69    1
     5    70    71    1
     6    69    65   am
     7    71    76   am
     8    71    72    2
     9    79    78    2
    10    76    77    1
    11    65    64    1
    12    65    66    2
    13    64    63    1
    14    64    67    1
    15    78    77    1
    16    68    67    1
    17    77    80    1
    18    80    82    1
    19    80    81    1
    20    83    84    1
    21     4     3    2
    22    88    89    1
    23    91    90    2
    24     3     2    1
    25     5     2    1
    26     5     6    1
    27    85    84    1
    28    85    86    2
    29    84    87    1
    30    90    89    1
    31     2     1    1
    32    59    58    2
    33    89    92    1
    34     6     7    1
    35    92    93    1
    36    60    62    1
    37    60    61    1
    38    60    57    1
    39    58    57    1
    40     1     7    1
    41    57    56    1
    42    99    98    1
    43    99   100    1
    44    94    95    1
    45    98    95    1
    46    97    96    2
    47   103   102    1
    48    27    28    1
    49    13    12    1
    50    95    96    1
    51    33    31    1
    52   102   104    1
    53   102   101    2
    54    56    53   am
    55   100   101    1
    56    12     9    1
    57    54    53    2
    58    30    29    2
    59    53    52    1
    60    26    24    1
    61    28    31    1
    62    28    29    1
    63     8     9    1
    64    31    32    1
    65    49    48    1
    66    24    25    1
    67    24    21    1
    68     9    10    1
    69    47    46    2
    70    38    39    1
    71    38    35    1
    72    22    21    1
    73    22    23    2
    74    52    51    1
    75    52    55    1
    76    48    50    1
    77    48    45    1
    78    21    20    1
    79    46    51   am
    80    46    45    1
    81    10    11    2
    82    10    14   am
    83    34    35    1
    84    39    41   ar
    85    39    40   ar
    86    44    45    1
    87    37    36    2
    88    41    43   ar
    89    20    16   am
    90    40    42   ar
    91    35    36    1
    92    14    15    1
    93    43    42   ar
    94    19    18    1
    95    16    15    1
    96    16    17    2
    97    15    18    1
