@<TRIPOS>MOLECULE
tmp/1qxwA00.pdb
 166 157 0 0 0
SMALL
GASTEIGER

@<TRIPOS>ATOM
      1  N         -3.3070    3.7030    0.0890 N.3    56  PRO56      -0.2116
      2  CA        -3.6520    3.7000   -1.3390 C.3    56  PRO56       0.1372
      3  C         -5.1180    4.0590   -1.5850 C.2    56  PRO56       0.2244
      4  O         -5.3980    4.9070   -2.4230 O.2    56  PRO56      -0.2868
      5  CB        -3.3510    2.2650   -1.7690 C.3    56  PRO56       0.0268
      6  CG        -2.2130    1.8780   -0.8920 C.3    56  PRO56       0.0207
      7  CD        -2.5910    2.4640    0.4600 C.3    56  PRO56       0.0892
      8  N         -5.1050    7.8900   -2.6730 N.3    60  GLU60      -0.1245
      9  CA        -5.0580    7.8470   -4.1300 C.3    60  GLU60       0.1567
     10  C         -6.2540    7.2080   -4.8150 C.2    60  GLU60       0.2260
     11  O         -6.2780    7.1340   -6.0350 O.2    60  GLU60      -0.2867
     12  CB        -3.8080    7.0770   -4.5840 C.3    60  GLU60       0.0388
     13  CG        -2.5070    7.5130   -3.9320 C.3    60  GLU60       0.1160
     14  CD        -2.1760    8.9610   -4.2050 C.2    60  GLU60       0.3649
     15  OE1       -2.5790    9.4790   -5.2650 O.co2  60  GLU60      -0.2457
     16  OE2       -1.5210    9.5840   -3.3430 O.co2  60  GLU60      -0.2457
     17  N         -6.8490    4.1660   -4.9360 N.3    62  PHE62      -0.1241
     18  CA        -6.2980    2.9800   -5.5620 C.3    62  PHE62       0.1605
     19  C         -7.2840    1.8380   -5.3610 C.2    62  PHE62       0.2264
     20  O         -7.8620    1.7130   -4.2880 O.2    62  PHE62      -0.2867
     21  CB        -4.9610    2.6420   -4.8910 C.3    62  PHE62       0.0534
     22  CG        -4.2510    1.4670   -5.4940 C.ar   62  PHE62      -0.0203
     23  CD1       -3.4720    1.6100   -6.6300 C.ar   62  PHE62      -0.0042
     24  CD2       -4.3240    0.2290   -4.8980 C.ar   62  PHE62      -0.0042
     25  CE1       -2.8080    0.5190   -7.1680 C.ar   62  PHE62      -0.0003
     26  CE2       -3.6620   -0.8540   -5.4330 C.ar   62  PHE62      -0.0003
     27  CZ        -2.9080   -0.7090   -6.5650 C.ar   62  PHE62      -0.0000
     28  N         -0.6170   -2.5930   -2.6620 N.3    67  CYS67      -0.1235
     29  CA        -0.0830   -2.7610   -4.0040 C.3    67  CYS67       0.1677
     30  C          0.6770   -4.0690   -4.0430 C.2    67  CYS67       0.2270
     31  O          1.6150   -4.2670   -3.2620 O.2    67  CYS67      -0.2867
     32  CB         0.8380   -1.6020   -4.3800 C.3    67  CYS67       0.0956
     33  SG         0.0530    0.0230   -4.3380 S.3    67  CYS67      -0.0801
     34  N          5.8830   -2.0430   -9.4770 N.3    75  ALA75      -0.1231
     35  CA         5.1930   -1.2700   -8.4620 C.3    75  ALA75       0.1694
     36  C          3.7490   -1.0120   -8.8270 C.2    75  ALA75       0.2592
     37  O          3.3820   -1.0280   -9.9970 O.2    75  ALA75      -0.2718
     38  CB         5.8980    0.0430   -8.2550 C.3    75  ALA75       0.0304
     39  N          2.9510   -0.7440   -7.7950 N.am   76  HIS76      -0.1976
     40  CA         1.5490   -0.3610   -7.9250 C.3    76  HIS76       0.1656
     41  C          0.6560   -1.3990   -8.6300 C.2    76  HIS76       0.2291
     42  O         -0.3500   -1.0480   -9.2260 O.2    76  HIS76      -0.2864
     43  CB         1.4180    1.0290   -8.5760 C.3    76  HIS76       0.0771
     44  CG         2.1480    2.1160   -7.8430 C.ar   76  HIS76       0.0820
     45  ND1        2.3040    3.3850   -8.3580 N.ar   76  HIS76      -0.2267
     46  CD2        2.7610    2.1240   -6.6340 C.ar   76  HIS76       0.1154
     47  CE1        2.9850    4.1260   -7.5010 C.ar   76  HIS76       0.1986
     48  NE2        3.2800    3.3830   -6.4490 N.ar   76  HIS76      -0.2212
     49  N          3.6060   -3.9830   -1.1490 N.3    93  ASP93      -0.1239
     50  CA         3.8440   -2.6540   -0.6040 C.3    93  ASP93       0.1674
     51  C          2.6060   -2.2610    0.2020 C.2    93  ASP93       0.2266
     52  O          1.5200   -2.1080   -0.3420 O.2    93  ASP93      -0.2867
     53  CB         4.1590   -1.6660   -1.7410 C.3    93  ASP93       0.1410
     54  CG         4.6110   -0.2970   -1.2310 C.2    93  ASP93       0.3668
     55  OD1        5.4460    0.3780   -1.8920 O.co2  93  ASP93      -0.2456
     56  OD2        4.1530    0.2020   -0.1900 O.co2  93  ASP93      -0.2456
     57  N          0.8940    0.4190    2.8830 N.3    95  SER95      -0.1217
     58  CA         0.9270    1.7680    3.4590 C.3    95  SER95       0.1889
     59  C         -0.4490    2.0430    4.0520 C.2    95  SER95       0.2288
     60  O         -1.4610    1.6240    3.5090 O.2    95  SER95      -0.2866
     61  CB         1.3240    2.8060    2.4170 C.3    95  SER95       0.2089
     62  OG         0.4300    2.8250    1.3200 O.3    95  SER95      -0.2183
     63  N          4.7010    3.2410    5.6210 N.3   104  ASP104     -0.1239
     64  CA         4.8430    2.8170    4.2380 C.3   104  ASP104      0.1674
     65  C          6.0030    1.8450    4.2190 C.2   104  ASP104      0.2266
     66  O          7.1220    2.2140    4.5900 O.2   104  ASP104     -0.2867
     67  CB         5.1880    4.0480    3.3980 C.3   104  ASP104      0.1410
     68  CG         5.0940    3.8170    1.9110 C.2   104  ASP104      0.3668
     69  OD1        4.8550    2.6680    1.4840 O.co2 104  ASP104     -0.2456
     70  OD2        5.2060    4.7630    1.0920 O.co2 104  ASP104     -0.2456
     71  N         11.9420    5.9970  -10.1840 N.3   165  LEU165     -0.1231
     72  CA        11.1260    5.6990   -9.0130 C.3   165  LEU165      0.1693
     73  C         11.9540    6.1330   -7.8200 C.2   165  LEU165      0.2592
     74  O         13.1830    5.9490   -7.8010 O.2   165  LEU165     -0.2718
     75  CB        10.7690    4.2190   -8.9080 C.3   165  LEU165      0.0284
     76  CG         9.7830    3.7240   -9.9690 C.3   165  LEU165      0.0019
     77  CD1        9.4260    2.2700   -9.7000 C.3   165  LEU165      0.0001
     78  CD2        8.5260    4.5960  -10.0560 C.3   165  LEU165      0.0001
     79  N         11.2940    6.7130   -6.8280 N.am  166  THR166     -0.1953
     80  CA        11.9990    7.2680   -5.6840 C.3   166  THR166      0.1897
     81  C         11.2850    7.0610   -4.3760 C.2   166  THR166      0.2313
     82  O         10.1040    6.6780   -4.3420 O.2   166  THR166     -0.2863
     83  CB        12.1570    8.7900   -5.8410 C.3   166  THR166      0.1794
     84  OG1       10.8940    9.4420   -5.5950 O.3   166  THR166     -0.2208
     85  CG2       12.5240    9.1760   -7.2590 C.3   166  THR166      0.0378
     86  N         10.5380    9.1250   -0.5490 N.3   168  HIS168     -0.1241
     87  CA         9.7980   10.3440   -0.3010 C.3   168  HIS168      0.1621
     88  C          9.5970   10.5210    1.1830 C.2   168  HIS168      0.2264
     89  O          9.5820    9.5520    1.9360 O.2   168  HIS168     -0.2867
     90  CB         8.4080   10.2010   -0.9220 C.3   168  HIS168      0.0745
     91  CG         7.7150    8.9220   -0.5390 C.ar  168  HIS168      0.0817
     92  ND1        6.8650    8.8400    0.5420 N.ar  168  HIS168     -0.2268
     93  CD2        7.7660    7.6770   -1.0750 C.ar  168  HIS168      0.1154
     94  CE1        6.4210    7.5940    0.6520 C.ar  168  HIS168      0.1986
     95  NE2        6.9460    6.8700   -0.3220 N.ar  168  HIS168     -0.2212
     96  N          1.1800   10.2860    2.4120 N.3   174  LEU174     -0.1245
     97  CA         2.0430    9.3400    1.7100 C.3   174  LEU174      0.1561
     98  C          3.1620   10.0350    0.9490 C.2   174  LEU174      0.2260
     99  O          4.1170    9.3820    0.5240 O.2   174  LEU174     -0.2867
    100  CB         1.2370    8.4620    0.7480 C.3   174  LEU174      0.0270
    101  CG         1.0240    7.0050    1.1660 C.3   174  LEU174      0.0019
    102  CD1        0.2770    6.2780    0.0700 C.3   174  LEU174      0.0001
    103  CD2        2.3520    6.3160    1.4610 C.3   174  LEU174      0.0001
    104  N         13.0220    3.4500   -0.2490 N.3   202  GLU202     -0.1245
    105  CA        12.5860    2.2980   -1.0260 C.3   202  GLU202      0.1567
    106  C         13.4400    2.0570   -2.2750 C.2   202  GLU202      0.2260
    107  O         12.9900    2.2940   -3.3970 O.2   202  GLU202     -0.2867
    108  CB        11.1100    2.4530   -1.4380 C.3   202  GLU202      0.0388
    109  CG        10.7070    3.7800   -2.0670 C.3   202  GLU202      0.1160
    110  CD         9.1970    3.9270   -2.1420 C.2   202  GLU202      0.3649
    111  OE1        8.5250    3.0160   -2.6660 O.co2 202  GLU202     -0.2457
    112  OE2        8.6730    4.9510   -1.6570 O.co2 202  GLU202     -0.2457
    113  N         15.0770    0.4640   -5.4430 N.3   204  PHE204     -0.1241
    114  CA        14.6500   -0.4450   -6.5020 C.3   204  PHE204      0.1605
    115  C         15.9060   -0.9000   -7.2330 C.2   204  PHE204      0.2264
    116  O         16.6140   -0.0730   -7.8180 O.2   204  PHE204     -0.2867
    117  CB        13.7390    0.2630   -7.5010 C.3   204  PHE204      0.0534
    118  CG        12.3590    0.5250   -6.9930 C.ar  204  PHE204     -0.0203
    119  CD1       12.0560    1.7100   -6.3370 C.ar  204  PHE204     -0.0042
    120  CD2       11.3600   -0.3940   -7.1980 C.ar  204  PHE204     -0.0042
    121  CE1       10.7810    1.9440   -5.8840 C.ar  204  PHE204     -0.0003
    122  CE2       10.0950   -0.1660   -6.7440 C.ar  204  PHE204     -0.0003
    123  CZ         9.8020    1.0070   -6.0880 C.ar  204  PHE204     -0.0000
    124  N         -2.3020    1.9810  -13.4260 N.3   219  TRP219     -0.1241
    125  CA        -1.5830    1.9980  -12.1600 C.3   219  TRP219      0.1605
    126  C         -0.2150    1.3270  -12.2020 C.2   219  TRP219      0.2264
    127  O          0.7840    1.9120  -11.7880 O.2   219  TRP219     -0.2867
    128  CB        -2.4250    1.3210  -11.0790 C.3   219  TRP219      0.0550
    129  CG        -3.5530    2.1640  -10.5900 C.ar  219  TRP219      0.0003
    130  CD1       -4.8750    2.0340  -10.9050 C.ar  219  TRP219      0.0946
    131  CD2       -3.4630    3.2810   -9.7020 C.ar  219  TRP219      0.0152
    132  NE1       -5.6100    2.9980  -10.2630 N.ar  219  TRP219     -0.2442
    133  CE2       -4.7670    3.7750   -9.5130 C.ar  219  TRP219      0.0810
    134  CE3       -2.4070    3.9140   -9.0380 C.ar  219  TRP219      0.0012
    135  CZ2       -5.0410    4.8680   -8.6960 C.ar  219  TRP219      0.0191
    136  CZ3       -2.6830    4.9950   -8.2280 C.ar  219  TRP219      0.0001
    137  CH2       -3.9850    5.4590   -8.0610 C.ar  219  TRP219      0.0015
    138  N          3.3840   -0.1640  -12.8030 N.3   221  PHE221     -0.1241
    139  CA         4.6310    0.2130  -13.4630 C.3   221  PHE221      0.1605
    140  C          5.3500   -1.0620  -13.8430 C.2   221  PHE221      0.2264
    141  O          5.4670   -1.9650  -13.0310 O.2   221  PHE221     -0.2867
    142  CB         5.5170    1.0280  -12.5280 C.3   221  PHE221      0.0534
    143  CG         4.9720    2.3930  -12.2040 C.ar  221  PHE221     -0.0203
    144  CD1        4.1550    3.0720  -13.0960 C.ar  221  PHE221     -0.0042
    145  CD2        5.2660    2.9890  -10.9930 C.ar  221  PHE221     -0.0042
    146  CE1        3.6550    4.3280  -12.7770 C.ar  221  PHE221     -0.0003
    147  CE2        4.7780    4.2360  -10.6820 C.ar  221  PHE221     -0.0003
    148  CZ         3.9770    4.9070  -11.5660 C.ar  221  PHE221     -0.0000
    149  N         12.2730   -4.3140   -4.6180 N.3   231  GLN231     -0.1245
    150  CA        12.1710   -3.1320   -3.7820 C.3   231  GLN231      0.1566
    151  C         12.1500   -3.5780   -2.3420 C.2   231  GLN231      0.2260
    152  O         11.5650   -4.6100   -2.0150 O.2   231  GLN231     -0.2867
    153  CB        10.8800   -2.3610   -4.0730 C.3   231  GLN231      0.0367
    154  CG        10.6380   -1.1630   -3.1360 C.3   231  GLN231      0.0905
    155  CD         9.3010   -1.2400   -2.4170 C.2   231  GLN231      0.2608
    156  OE1        8.9440   -2.2890   -1.8740 O.2   231  GLN231     -0.2717
    157  NE2        8.5740   -0.1360   -2.3900 N.am  231  GLN231     -0.0878
    158  N         11.3180   -1.4470    1.2060 N.3   233  GLU233     -0.1245
    159  CA        10.9200   -0.1500    1.7530 C.3   233  GLU233      0.1567
    160  C         10.6430   -0.1730    3.2490 C.2   233  GLU233      0.2260
    161  O         10.0390   -1.1070    3.7560 O.2   233  GLU233     -0.2867
    162  CB         9.6630    0.3800    1.0450 C.3   233  GLU233      0.0388
    163  CG         9.2130    1.7690    1.5230 C.3   233  GLU233      0.1160
    164  CD         8.0120    2.3010    0.7650 C.2   233  GLU233      0.3649
    165  OE1        7.2830    1.4680    0.1780 O.co2 233  GLU233     -0.2457
    166  OE2        7.7920    3.5250    0.7670 O.co2 233  GLU233     -0.2457
@<TRIPOS>BOND
     1   140   139    1
     2   140   141    2
     3   139   138    1
     4   139   142    1
     5   124   125    1
     6   144   146   ar
     7   144   143   ar
     8   146   148   ar
     9   142   143    1
    10   143   145   ar
    11   126   125    1
    12   126   127    2
    13   125   128    1
    14   148   147   ar
    15   128   129    1
    16   145   147   ar
    17   130   129   ar
    18   130   132   ar
    19   129   131   ar
    20   132   133   ar
    21    71    72    1
    22    78    76    1
    23    37    36    2
    24    76    77    1
    25    76    75    1
    26   131   133   ar
    27   131   134   ar
    28   133   135   ar
    29    34    35    1
    30    42    41    2
    31   134   136   ar
    32    72    75    1
    33    72    73    1
    34    36    35    1
    35    36    39   am
    36   135   137   ar
    37    41    40    1
    38    43    40    1
    39    43    44    1
    40    35    38    1
    41    45    44   ar
    42    45    47   ar
    43   136   137   ar
    44    40    39    1
    45    44    46   ar
    46    73    74    2
    47    73    79   am
    48   116   115    2
    49   117   118    1
    50   117   114    1
    51    47    48   ar
    52    85    83    1
    53   115   114    1
    54   120   118   ar
    55   120   122   ar
    56    25    23   ar
    57    25    27   ar
    58   118   119   ar
    59    79    80    1
    60   122   123   ar
    61    46    48   ar
    62    23    22   ar
    63    27    26   ar
    64   114   113    1
    65   119   121   ar
    66   123   121   ar
    67    11    10    2
    68    83    80    1
    69    83    84    1
    70    80    81    1
    71    18    19    1
    72    18    17    1
    73    18    21    1
    74    22    24   ar
    75    22    21    1
    76    26    24   ar
    77    19    20    2
    78    15    14   ar
    79    10     9    1
    80   149   150    1
    81    12     9    1
    82    12    13    1
    83    32    33    1
    84    32    29    1
    85    81    82    2
    86    14    13    1
    87    14    16   ar
    88     9     8    1
    89   153   150    1
    90   153   154    1
    91    30    29    1
    92    30    31    2
    93    29    28    1
    94   150   151    1
    95   107   106    2
    96   154   155    1
    97   111   110   ar
    98     4     3    2
    99   155   157   am
   100   155   156    2
   101   151   152    2
   102   106   105    1
   103   110   109    1
   104   110   112   ar
   105   109   108    1
   106    55    54   ar
   107     5     2    1
   108     5     6    1
   109    53    54    1
   110    53    50    1
   111     3     2    1
   112   108   105    1
   113     2     1    1
   114    54    56   ar
   115    49    50    1
   116    93    91   ar
   117    93    95   ar
   118   105   104    1
   119    90    91    1
   120    90    87    1
   121     6     7    1
   122    50    51    1
   123    86    87    1
   124    91    92   ar
   125    52    51    2
   126    95    94   ar
   127    87    88    1
   128   102   101    1
   129     1     7    1
   130   165   164   ar
   131    99    98    2
   132    92    94   ar
   133   100   101    1
   134   100    97    1
   135   164   166   ar
   136   164   163    1
   137    98    97    1
   138   162   163    1
   139   162   159    1
   140    70    68   ar
   141   101   103    1
   142    88    89    2
   143   158   159    1
   144    62    61    1
   145    69    68   ar
   146    97    96    1
   147   159   160    1
   148    68    67    1
   149    61    58    1
   150    57    58    1
   151   160   161    2
   152    67    64    1
   153    58    59    1
   154    60    59    2
   155    65    64    1
   156    65    66    2
   157    64    63    1
