@<TRIPOS>MOLECULE
tmp/1qxyA00.pdb
 172 165 0 0 0
SMALL
GASTEIGER

@<TRIPOS>ATOM
      1  N         -3.6010    3.5560    2.8560 N.3    55  ALA55      -0.1231
      2  CA        -3.1670    4.8130    2.2450 C.3    55  ALA55       0.1679
      3  C         -3.4360    4.8360    0.7490 C.2    55  ALA55       0.2434
      4  O         -3.9150    5.8690    0.2370 O.2    55  ALA55      -0.2733
      5  CB        -1.6970    5.1050    2.5910 C.3    55  ALA55       0.0304
      6  N         -3.2110    3.7480    0.0040 N.am   56  PRO56      -0.2729
      7  CA        -3.5660    3.8090   -1.3970 C.3    56  PRO56       0.1401
      8  C         -5.0500    4.1540   -1.5880 C.2    56  PRO56       0.2269
      9  O         -5.3580    5.0090   -2.4610 O.2    56  PRO56      -0.2865
     10  CB        -3.1800    2.4080   -1.9360 C.3    56  PRO56       0.0296
     11  CG        -1.9950    2.0020   -1.0570 C.3    56  PRO56       0.0237
     12  CD        -2.4470    2.5220    0.3160 C.3    56  PRO56       0.0939
     13  N         -5.1370    8.0290   -2.6820 N.3    60  GLU60      -0.1245
     14  CA        -5.1020    7.9340   -4.1530 C.3    60  GLU60       0.1567
     15  C         -6.3580    7.3600   -4.8260 C.2    60  GLU60       0.2260
     16  O         -6.4110    7.3350   -6.0610 O.2    60  GLU60      -0.2867
     17  CB        -3.9010    7.0630   -4.6090 C.3    60  GLU60       0.0388
     18  CG        -2.5280    7.3830   -4.0460 C.3    60  GLU60       0.1160
     19  CD        -2.1300    8.8310   -4.1710 C.2    60  GLU60       0.3649
     20  OE1       -2.3500    9.4320   -5.2590 O.co2  60  GLU60      -0.2457
     21  OE2       -1.5790    9.3650   -3.1740 O.co2  60  GLU60      -0.2457
     22  N         -6.8980    4.3450   -4.9810 N.3    62  PHE62      -0.1241
     23  CA        -6.3410    3.1350   -5.6070 C.3    62  PHE62       0.1605
     24  C         -7.3150    1.9800   -5.3550 C.2    62  PHE62       0.2264
     25  O         -7.8220    1.8560   -4.2470 O.2    62  PHE62      -0.2867
     26  CB        -4.9790    2.8090   -4.9720 C.3    62  PHE62       0.0534
     27  CG        -4.2840    1.6130   -5.5830 C.ar   62  PHE62      -0.0203
     28  CD1       -3.5450    1.7510   -6.7360 C.ar   62  PHE62      -0.0042
     29  CD2       -4.2910    0.3760   -4.9710 C.ar   62  PHE62      -0.0042
     30  CE1       -2.9100    0.6690   -7.3100 C.ar   62  PHE62      -0.0003
     31  CE2       -3.6230   -0.6870   -5.5220 C.ar   62  PHE62      -0.0003
     32  CZ        -2.9130   -0.5250   -6.6940 C.ar   62  PHE62      -0.0000
     33  N         -0.6000   -2.5160   -2.7270 N.3    67  CYS67      -0.1235
     34  CA        -0.1000   -2.6840   -4.0790 C.3    67  CYS67       0.1677
     35  C          0.6800   -4.0110   -4.1300 C.2    67  CYS67       0.2270
     36  O          1.6000   -4.2260   -3.3420 O.2    67  CYS67      -0.2867
     37  CB         0.8240   -1.5590   -4.4730 C.3    67  CYS67       0.0956
     38  SG         0.0760    0.0870   -4.3810 S.3    67  CYS67      -0.0801
     39  N          5.8500   -2.0420   -9.5120 N.3    75  ALA75      -0.1231
     40  CA         5.1950   -1.2260   -8.4640 C.3    75  ALA75       0.1694
     41  C          3.7600   -0.9330   -8.8760 C.2    75  ALA75       0.2592
     42  O          3.4070   -0.9410  -10.0720 O.2    75  ALA75      -0.2718
     43  CB         5.9430    0.0730   -8.2400 C.3    75  ALA75       0.0304
     44  N          2.9610   -0.6420   -7.8810 N.am   76  HIS76      -0.1976
     45  CA         1.5840   -0.1860   -8.0630 C.3    76  HIS76       0.1656
     46  C          0.6730   -1.2130   -8.7230 C.2    76  HIS76       0.2291
     47  O         -0.3810   -0.8400   -9.2510 O.2    76  HIS76      -0.2864
     48  CB         1.5220    1.1680   -8.7900 C.3    76  HIS76       0.0771
     49  CG         2.1660    2.3290   -8.0690 C.ar   76  HIS76       0.0820
     50  ND1        1.8670    3.6440   -8.3660 N.ar   76  HIS76      -0.2267
     51  CD2        3.1190    2.3720   -7.1040 C.ar   76  HIS76       0.1154
     52  CE1        2.5740    4.4410   -7.5840 C.ar   76  HIS76       0.1986
     53  NE2        3.3600    3.6970   -6.8280 N.ar   76  HIS76      -0.2212
     54  N          3.6120   -4.0220   -1.1590 N.3    93  ASP93      -0.1239
     55  CA         3.8730   -2.6550   -0.6680 C.3    93  ASP93       0.1674
     56  C          2.6560   -2.1930    0.1570 C.2    93  ASP93       0.2266
     57  O          1.5390   -2.1090   -0.3950 O.2    93  ASP93      -0.2867
     58  CB         4.2520   -1.7160   -1.8150 C.3    93  ASP93       0.1410
     59  CG         4.8050   -0.4080   -1.3310 C.2    93  ASP93       0.3668
     60  OD1        5.7310    0.1650   -1.9420 O.co2  93  ASP93      -0.2456
     61  OD2        4.3460    0.1280   -0.3170 O.co2  93  ASP93      -0.2456
     62  N          1.0420    0.4410    2.8580 N.3    95  SER95      -0.1217
     63  CA         1.0650    1.7840    3.4170 C.3    95  SER95       0.1889
     64  C         -0.3370    2.1100    3.9740 C.2    95  SER95       0.2288
     65  O         -1.3620    1.7100    3.4390 O.2    95  SER95      -0.2866
     66  CB         1.5060    2.8210    2.4100 C.3    95  SER95       0.2089
     67  OG         0.7000    2.8840    1.2790 O.3    95  SER95      -0.2183
     68  N          4.8500    3.2800    5.5990 N.3   104  ASP104     -0.1239
     69  CA         5.0180    2.7700    4.2600 C.3   104  ASP104      0.1674
     70  C          6.1580    1.7850    4.2480 C.2   104  ASP104      0.2266
     71  O          7.2680    2.1150    4.6760 O.2   104  ASP104     -0.2867
     72  CB         5.2840    4.0360    3.3360 C.3   104  ASP104      0.1410
     73  CG         5.2730    3.7280    1.8820 C.2   104  ASP104      0.3668
     74  OD1        5.0620    2.5740    1.4710 O.co2 104  ASP104     -0.2456
     75  OD2        5.5550    4.6660    1.0960 O.co2 104  ASP104     -0.2456
     76  N         11.9200    5.8010   -9.8920 N.3   165  LEU165     -0.1231
     77  CA        11.1200    5.5250   -8.6950 C.3   165  LEU165      0.1693
     78  C         11.9670    6.0070   -7.5350 C.2   165  LEU165      0.2592
     79  O         13.1870    5.8170   -7.5460 O.2   165  LEU165     -0.2718
     80  CB        10.7710    4.0580   -8.5510 C.3   165  LEU165      0.0284
     81  CG         9.8370    3.5240   -9.6260 C.3   165  LEU165      0.0019
     82  CD1        9.6850    2.0310   -9.4170 C.3   165  LEU165      0.0001
     83  CD2        8.5090    4.2550   -9.7200 C.3   165  LEU165      0.0001
     84  N         11.3280    6.5840   -6.5180 N.am  166  THR166     -0.1953
     85  CA        12.0520    7.2110   -5.4190 C.3   166  THR166      0.1897
     86  C         11.3730    6.9240   -4.1010 C.2   166  THR166      0.2313
     87  O         10.1890    6.6330   -4.0610 O.2   166  THR166     -0.2863
     88  CB        12.1570    8.7480   -5.6050 C.3   166  THR166      0.1794
     89  OG1       10.9080    9.3620   -5.3440 O.3   166  THR166     -0.2208
     90  CG2       12.5540    9.1420   -7.0320 C.3   166  THR166      0.0378
     91  N         10.7310    9.0340   -0.2400 N.3   168  HIS168     -0.1241
     92  CA         9.9780   10.2640    0.0310 C.3   168  HIS168      0.1621
     93  C          9.8350   10.4600    1.5110 C.2   168  HIS168      0.2264
     94  O          9.8220    9.5070    2.2780 O.2   168  HIS168     -0.2867
     95  CB         8.5540   10.1250   -0.5480 C.3   168  HIS168      0.0745
     96  CG         7.8880    8.8150   -0.2100 C.ar  168  HIS168      0.0817
     97  ND1        6.9950    8.6980    0.8300 N.ar  168  HIS168     -0.2268
     98  CD2        8.0150    7.5660   -0.7410 C.ar  168  HIS168      0.1154
     99  CE1        6.5850    7.4380    0.8900 C.ar  168  HIS168      0.1986
    100  NE2        7.1830    6.7250   -0.0480 N.ar  168  HIS168     -0.2212
    101  N          1.2480   10.3330    2.9130 N.3   174  LEU174     -0.1231
    102  CA         1.9950    9.2470    2.3790 C.3   174  LEU174      0.1693
    103  C          3.2730    9.8820    1.8110 C.2   174  LEU174      0.2592
    104  O          4.3830    9.3330    2.0030 O.2   174  LEU174     -0.2718
    105  CB         1.1480    8.4330    1.3860 C.3   174  LEU174      0.0284
    106  CG         1.8640    7.2120    0.8120 C.3   174  LEU174      0.0019
    107  CD1        2.3370    6.2840    1.8880 C.3   174  LEU174      0.0001
    108  CD2        0.9630    6.4910   -0.1400 C.3   174  LEU174      0.0001
    109  N          3.1530   10.9550    1.0260 N.am  175  HIS175     -0.1976
    110  CA         4.2560   11.6620    0.3860 C.3   175  HIS175      0.1656
    111  C          4.4130   13.1350    0.7900 C.2   175  HIS175      0.2291
    112  O          3.4910   13.9180    0.5460 O.2   175  HIS175     -0.2864
    113  CB         4.1460   11.5360   -1.1600 C.3   175  HIS175      0.0771
    114  CG         4.2090   10.1210   -1.6880 C.ar  175  HIS175      0.0820
    115  ND1        3.0880    9.3240   -1.7850 N.ar  175  HIS175     -0.2267
    116  CD2        5.2380    9.3820   -2.1700 C.ar  175  HIS175      0.1154
    117  CE1        3.4350    8.1400   -2.2610 C.ar  175  HIS175      0.1986
    118  NE2        4.7350    8.1390   -2.4700 N.ar  175  HIS175     -0.2212
    119  N         13.4050    3.3170   -0.0980 N.3   202  GLU202     -0.1245
    120  CA        12.8850    2.2190   -0.8860 C.3   202  GLU202      0.1567
    121  C         13.7380    1.9820   -2.1350 C.2   202  GLU202      0.2260
    122  O         13.2950    2.1940   -3.2620 O.2   202  GLU202     -0.2867
    123  CB        11.4210    2.4140   -1.2160 C.3   202  GLU202      0.0388
    124  CG        10.9630    3.7150   -1.8590 C.3   202  GLU202      0.1160
    125  CD         9.4470    3.8270   -1.9670 C.2   202  GLU202      0.3649
    126  OE1        8.8220    2.8140   -2.3940 O.co2 202  GLU202     -0.2457
    127  OE2        8.8610    4.8380   -1.5070 O.co2 202  GLU202     -0.2457
    128  N         15.0840    0.2910   -5.3380 N.3   204  PHE204     -0.1241
    129  CA        14.6180   -0.6010   -6.4040 C.3   204  PHE204      0.1605
    130  C         15.8380   -1.0110   -7.2110 C.2   204  PHE204      0.2264
    131  O         16.4960   -0.1850   -7.8490 O.2   204  PHE204     -0.2867
    132  CB        13.6150    0.1170   -7.3430 C.3   204  PHE204      0.0534
    133  CG        12.2430    0.2880   -6.7780 C.ar  204  PHE204     -0.0203
    134  CD1       11.9360    1.3910   -6.0630 C.ar  204  PHE204     -0.0042
    135  CD2       11.2500   -0.6540   -6.9560 C.ar  204  PHE204     -0.0042
    136  CE1       10.6580    1.5880   -5.5360 C.ar  204  PHE204     -0.0003
    137  CE2        9.9890   -0.4720   -6.4530 C.ar  204  PHE204     -0.0003
    138  CZ         9.7080    0.6430   -5.7200 C.ar  204  PHE204     -0.0000
    139  N         -2.4060    2.1230  -13.4810 N.3   219  TRP219     -0.1241
    140  CA        -1.6720    2.1620  -12.2330 C.3   219  TRP219      0.1605
    141  C         -0.3070    1.4950  -12.2770 C.2   219  TRP219      0.2264
    142  O          0.6490    2.0670  -11.7970 O.2   219  TRP219     -0.2867
    143  CB        -2.4790    1.5100  -11.1140 C.3   219  TRP219      0.0550
    144  CG        -3.6990    2.2820  -10.7200 C.ar  219  TRP219      0.0003
    145  CD1       -4.9990    2.0230  -11.0640 C.ar  219  TRP219      0.0946
    146  CD2       -3.7270    3.4080   -9.8730 C.ar  219  TRP219      0.0152
    147  NE1       -5.8280    2.9560  -10.4950 N.ar  219  TRP219     -0.2442
    148  CE2       -5.0770    3.8160   -9.7490 C.ar  219  TRP219      0.0810
    149  CE3       -2.7500    4.1230   -9.1980 C.ar  219  TRP219      0.0012
    150  CZ2       -5.4710    4.9020   -8.9680 C.ar  219  TRP219      0.0191
    151  CZ3       -3.1540    5.2180   -8.4080 C.ar  219  TRP219      0.0001
    152  CH2       -4.5000    5.5770   -8.3030 C.ar  219  TRP219      0.0015
    153  N          3.3310   -0.0450  -12.8160 N.3   221  PHE221     -0.1241
    154  CA         4.5780    0.2780  -13.4910 C.3   221  PHE221      0.1605
    155  C          5.2980   -1.0040  -13.8270 C.2   221  PHE221      0.2264
    156  O          5.3860   -1.9160  -12.9880 O.2   221  PHE221     -0.2867
    157  CB         5.4790    1.1170  -12.5760 C.3   221  PHE221      0.0534
    158  CG         4.9240    2.4680  -12.2240 C.ar  221  PHE221     -0.0203
    159  CD1        4.0510    3.1540  -13.0710 C.ar  221  PHE221     -0.0042
    160  CD2        5.2470    3.0360  -11.0070 C.ar  221  PHE221     -0.0042
    161  CE1        3.5550    4.4190  -12.7050 C.ar  221  PHE221     -0.0003
    162  CE2        4.7810    4.2790  -10.6530 C.ar  221  PHE221     -0.0003
    163  CZ         3.9190    4.9660  -11.4800 C.ar  221  PHE221     -0.0000
    164  N         11.4890   -1.5800    1.3490 N.3   233  GLU233     -0.1245
    165  CA        11.1110   -0.2500    1.8350 C.3   233  GLU233      0.1567
    166  C         10.8100   -0.2970    3.3220 C.2   233  GLU233      0.2260
    167  O         10.1480   -1.2130    3.8030 O.2   233  GLU233     -0.2867
    168  CB         9.8780    0.2540    1.1120 C.3   233  GLU233      0.0388
    169  CG         9.3540    1.6200    1.6180 C.3   233  GLU233      0.1160
    170  CD         8.1760    2.1470    0.8320 C.2   233  GLU233      0.3649
    171  OE1        7.3640    1.2800    0.3170 O.co2 233  GLU233     -0.2457
    172  OE2        8.0550    3.4010    0.7460 O.co2 233  GLU233     -0.2457
@<TRIPOS>BOND
     1   155   154    1
     2   155   156    2
     3   154   153    1
     4   154   157    1
     5   139   140    1
     6   159   161   ar
     7   159   158   ar
     8   161   163   ar
     9   157   158    1
    10   141   140    1
    11   141   142    2
    12   140   143    1
    13   158   160   ar
    14   163   162   ar
    15   143   144    1
    16   145   144   ar
    17   145   147   ar
    18   160   162   ar
    19   144   146   ar
    20   147   148   ar
    21    42    41    2
    22    76    77    1
    23   146   148   ar
    24   146   149   ar
    25   148   150   ar
    26    83    81    1
    27    81    82    1
    28    81    80    1
    29    39    40    1
    30    47    46    2
    31   149   151   ar
    32   150   152   ar
    33    41    40    1
    34    41    44   am
    35    48    49    1
    36    48    45    1
    37    46    45    1
    38    77    80    1
    39    77    78    1
    40    40    43    1
    41   151   152   ar
    42    50    49   ar
    43    50    52   ar
    44    49    51   ar
    45    45    44    1
    46   131   130    2
    47    52    53   ar
    48    79    78    2
    49    78    84   am
    50   132   133    1
    51   132   129    1
    52    30    28   ar
    53    30    32   ar
    54   130   129    1
    55    51    53   ar
    56    90    88    1
    57   135   133   ar
    58   135   137   ar
    59   133   134   ar
    60    28    27   ar
    61    32    31   ar
    62    84    85    1
    63   137   138   ar
    64   129   128    1
    65   134   136   ar
    66    16    15    2
    67   138   136   ar
    68    23    24    1
    69    23    22    1
    70    23    26    1
    71    88    85    1
    72    88    89    1
    73    27    26    1
    74    27    29   ar
    75    31    29   ar
    76    85    86    1
    77    24    25    2
    78    20    19   ar
    79    15    14    1
    80    17    14    1
    81    17    18    1
    82    37    38    1
    83    37    34    1
    84    19    18    1
    85    19    21   ar
    86    14    13    1
    87    35    34    1
    88    35    36    2
    89    86    87    2
    90    34    33    1
    91   122   121    2
    92   118   117   ar
    93   118   116   ar
    94     9     8    2
    95   126   125   ar
    96   117   115   ar
    97   116   114   ar
    98   121   120    1
    99   125   124    1
   100   125   127   ar
   101    60    59   ar
   102    10     7    1
   103    10    11    1
   104   124   123    1
   105    58    59    1
   106    58    55    1
   107   115   114   ar
   108   114   113    1
   109     8     7    1
   110     7     6    1
   111    59    61   ar
   112   123   120    1
   113   113   110    1
   114    54    55    1
   115    11    12    1
   116   120   119    1
   117    98    96   ar
   118    98   100   ar
   119    55    56    1
   120    95    96    1
   121    95    92    1
   122    57    56    2
   123    91    92    1
   124    96    97   ar
   125   108   106    1
   126   100    99   ar
   127     6    12    1
   128     6     3   am
   129    92    93    1
   130     4     3    2
   131   171   170   ar
   132   110   111    1
   133   110   109    1
   134   112   111    2
   135   172   170   ar
   136     3     2    1
   137   106   105    1
   138   106   107    1
   139    97    99   ar
   140   170   169    1
   141   109   103   am
   142    75    73   ar
   143   168   169    1
   144   168   165    1
   145    67    66    1
   146   164   165    1
   147   105   102    1
   148    74    73   ar
   149    93    94    2
   150   103   104    2
   151   103   102    1
   152   165   166    1
   153    73    72    1
   154     2     5    1
   155     2     1    1
   156   102   101    1
   157    66    63    1
   158    62    63    1
   159   166   167    2
   160    72    69    1
   161    63    64    1
   162    65    64    2
   163    70    69    1
   164    70    71    2
   165    69    68    1
