@<TRIPOS>MOLECULE
tmp/1qxzA00.pdb
 167 160 0 0 0
SMALL
GASTEIGER

@<TRIPOS>ATOM
      1  N         23.4550    3.8060   -0.1270 N.3    56  PRO56      -0.2116
      2  CA        23.7760    3.8650    1.3050 C.3    56  PRO56       0.1372
      3  C         25.2340    4.2340    1.5840 C.2    56  PRO56       0.2244
      4  O         25.4610    5.1040    2.4260 O.2    56  PRO56      -0.2868
      5  CB        23.4380    2.4680    1.8030 C.3    56  PRO56       0.0268
      6  CG        22.4120    1.9890    0.8350 C.3    56  PRO56       0.0207
      7  CD        22.8450    2.5160   -0.5030 C.3    56  PRO56       0.0892
      8  N         25.2290    8.2060    2.6070 N.3    60  GLU60      -0.1245
      9  CA        25.1320    8.1100    4.0620 C.3    60  GLU60       0.1567
     10  C         26.3530    7.4600    4.7360 C.2    60  GLU60       0.2260
     11  O         26.3950    7.3600    5.9630 O.2    60  GLU60      -0.2867
     12  CB        23.8540    7.3520    4.4510 C.3    60  GLU60       0.0388
     13  CG        22.5670    8.0010    3.9630 C.3    60  GLU60       0.1160
     14  CD        22.3020    9.3410    4.6250 C.2    60  GLU60       0.3649
     15  OE1       22.7380    9.5300    5.7800 O.co2  60  GLU60      -0.2457
     16  OE2       21.6520   10.2040    3.9940 O.co2  60  GLU60      -0.2457
     17  N         26.9710    4.4190    4.8590 N.3    62  PHE62      -0.1241
     18  CA        26.4690    3.2000    5.5010 C.3    62  PHE62       0.1605
     19  C         27.4850    2.0710    5.3310 C.2    62  PHE62       0.2264
     20  O         28.0760    1.9230    4.2700 O.2    62  PHE62      -0.2867
     21  CB        25.1260    2.8160    4.8690 C.3    62  PHE62       0.0534
     22  CG        24.4230    1.6800    5.5530 C.ar   62  PHE62      -0.0203
     23  CD1       23.6480    1.9060    6.6730 C.ar   62  PHE62      -0.0042
     24  CD2       24.5070    0.3880    5.0550 C.ar   62  PHE62      -0.0042
     25  CE1       22.9950    0.8680    7.2970 C.ar   62  PHE62      -0.0003
     26  CE2       23.8520   -0.6490    5.6820 C.ar   62  PHE62      -0.0003
     27  CZ        23.0990   -0.4070    6.8010 C.ar   62  PHE62      -0.0000
     28  N         20.9620   -2.4860    2.7120 N.3    67  CYS67      -0.1235
     29  CA        20.4420   -2.6590    4.0580 C.3    67  CYS67       0.1677
     30  C         19.6820   -3.9780    4.1140 C.2    67  CYS67       0.2270
     31  O         18.7760   -4.2230    3.3210 O.2    67  CYS67      -0.2867
     32  CB        19.5150   -1.5070    4.4380 C.3    67  CYS67       0.0956
     33  SG        20.2830    0.1280    4.3610 S.3    67  CYS67      -0.0801
     34  N         14.4280   -2.0430    9.4160 N.3    75  ALA75      -0.1231
     35  CA        15.0950   -1.2550    8.3920 C.3    75  ALA75       0.1694
     36  C         16.5210   -0.9450    8.8080 C.2    75  ALA75       0.2592
     37  O         16.8510   -0.9820    9.9890 O.2    75  ALA75      -0.2718
     38  CB        14.3410    0.0340    8.1470 C.3    75  ALA75       0.0304
     39  N         17.3520   -0.6260    7.8210 N.am   76  HIS76      -0.1976
     40  CA        18.6980   -0.1310    8.0620 C.3    76  HIS76       0.1656
     41  C         19.6070   -1.1820    8.7150 C.2    76  HIS76       0.2291
     42  O         20.6260   -0.8390    9.3080 O.2    76  HIS76      -0.2864
     43  CB        18.6590    1.1660    8.8980 C.3    76  HIS76       0.0771
     44  CG        18.1000    2.3510    8.1660 C.ar   76  HIS76       0.0820
     45  ND1       18.4430    3.6500    8.4820 N.ar   76  HIS76      -0.2267
     46  CD2       17.1990    2.4370    7.1580 C.ar   76  HIS76       0.1154
     47  CE1       17.7950    4.4810    7.6840 C.ar   76  HIS76       0.1986
     48  NE2       17.0270    3.7700    6.8770 N.ar   76  HIS76      -0.2212
     49  N         16.7880   -4.0730    1.1650 N.3    93  ASP93      -0.1239
     50  CA        16.5600   -2.7430    0.6240 C.3    93  ASP93       0.1674
     51  C         17.7610   -2.3180   -0.2210 C.2    93  ASP93       0.2266
     52  O         18.8810   -2.2160    0.2800 O.2    93  ASP93      -0.2867
     53  CB        16.3220   -1.7650    1.7680 C.3    93  ASP93       0.1410
     54  CG        15.7060   -0.4580    1.2980 C.2    93  ASP93       0.3668
     55  OD1       14.8090    0.0650    1.9900 O.co2  93  ASP93      -0.2456
     56  OD2       16.0490    0.0890    0.2350 O.co2  93  ASP93      -0.2456
     57  N         19.3730    0.4030   -2.9080 N.3    95  SER95      -0.1217
     58  CA        19.3290    1.7370   -3.5230 C.3    95  SER95       0.1889
     59  C         20.7080    2.0930   -4.0690 C.2    95  SER95       0.2288
     60  O         21.7270    1.6960   -3.5150 O.2    95  SER95      -0.2866
     61  CB        18.8310    2.7930   -2.5330 C.3    95  SER95       0.2089
     62  OG        19.6620    2.8890   -1.3800 O.3    95  SER95      -0.2183
     63  N         15.5610    3.2680   -5.7320 N.3   104  ASP104     -0.1239
     64  CA        15.4180    2.8020   -4.3600 C.3   104  ASP104      0.1674
     65  C         14.2910    1.7880   -4.3000 C.2   104  ASP104      0.2266
     66  O         13.1670    2.0890   -4.6970 O.2   104  ASP104     -0.2867
     67  CB        15.0680    3.9860   -3.4830 C.3   104  ASP104      0.1410
     68  CG        15.1570    3.6850   -2.0300 C.2   104  ASP104      0.3668
     69  OD1       15.3670    2.5070   -1.6660 O.co2 104  ASP104     -0.2456
     70  OD2       15.0620    4.6000   -1.1980 O.co2 104  ASP104     -0.2456
     71  N          8.5200    5.7240    9.8920 N.3   165  LEU165     -0.1231
     72  CA         9.2670    5.4960    8.6660 C.3   165  LEU165      0.1693
     73  C          8.4340    5.9850    7.4890 C.2   165  LEU165      0.2592
     74  O          7.2070    5.8270    7.4710 O.2   165  LEU165     -0.2718
     75  CB         9.6100    4.0090    8.5100 C.3   165  LEU165      0.0284
     76  CG        10.5060    3.4490    9.6190 C.3   165  LEU165      0.0019
     77  CD1       10.7650    1.9630    9.4520 C.3   165  LEU165      0.0001
     78  CD2       11.8110    4.1900    9.6680 C.3   165  LEU165      0.0001
     79  N          9.1000    6.5950    6.5140 N.am  166  THR166     -0.1953
     80  CA         8.4120    7.1980    5.3800 C.3   166  THR166      0.1897
     81  C          9.1070    6.9390    4.0560 C.2   166  THR166      0.2313
     82  O         10.2870    6.5870    4.0010 O.2   166  THR166     -0.2863
     83  CB         8.3100    8.7160    5.5560 C.3   166  THR166      0.1794
     84  OG1        9.5890    9.3200    5.2950 O.3   166  THR166     -0.2208
     85  CG2        8.0020    9.0780    7.0020 C.3   166  THR166      0.0378
     86  N          9.7940    9.0140    0.2110 N.3   168  HIS168     -0.1241
     87  CA        10.5200   10.2350   -0.0710 C.3   168  HIS168      0.1621
     88  C         10.6340   10.4580   -1.5510 C.2   168  HIS168      0.2264
     89  O         10.5960    9.5170   -2.3260 O.2   168  HIS168     -0.2867
     90  CB        11.9270   10.1270    0.4790 C.3   168  HIS168      0.0745
     91  CG        12.6010    8.8460    0.1150 C.ar  168  HIS168      0.0817
     92  ND1       13.6980    8.7850   -0.7190 N.ar  168  HIS168     -0.2268
     93  CD2       12.3030    7.5700    0.4400 C.ar  168  HIS168      0.1154
     94  CE1       14.0720    7.5250   -0.8540 C.ar  168  HIS168      0.1986
     95  NE2       13.2420    6.7770   -0.1620 N.ar  168  HIS168     -0.2212
     96  N         19.3000   10.3250   -2.8880 N.3   174  LEU174     -0.1231
     97  CA        18.5030    9.2460   -2.3200 C.3   174  LEU174      0.1693
     98  C         17.2210    9.8270   -1.7350 C.2   174  LEU174      0.2592
     99  O         16.1320    9.2960   -1.9520 O.2   174  LEU174     -0.2718
    100  CB        19.2940    8.4720   -1.2580 C.3   174  LEU174      0.0284
    101  CG        18.6170    7.2080   -0.7020 C.3   174  LEU174      0.0019
    102  CD1       18.2280    6.2760   -1.8190 C.3   174  LEU174      0.0001
    103  CD2       19.5090    6.4790    0.3040 C.3   174  LEU174      0.0001
    104  N         17.3570   10.9270   -0.9970 N.am  175  HIS175     -0.1976
    105  CA        16.2220   11.5850   -0.3690 C.3   175  HIS175      0.1656
    106  C         16.1320   13.0630   -0.8010 C.2   175  HIS175      0.2291
    107  O         17.0400   13.8610   -0.5290 O.2   175  HIS175     -0.2864
    108  CB        16.3200   11.4870    1.1630 C.3   175  HIS175      0.0771
    109  CG        16.2260   10.0830    1.6990 C.ar  175  HIS175      0.0820
    110  ND1       17.3360    9.3300    2.0180 N.ar  175  HIS175     -0.2267
    111  CD2       15.1550    9.2960    1.9630 C.ar  175  HIS175      0.1154
    112  CE1       16.9560    8.1440    2.4620 C.ar  175  HIS175      0.1986
    113  NE2       15.6360    8.0960    2.4400 N.ar  175  HIS175     -0.2212
    114  N          7.1010    3.3340    0.0700 N.3   202  GLU202     -0.1245
    115  CA         7.5630    2.1910    0.8400 C.3   202  GLU202      0.1567
    116  C          6.7210    1.9570    2.0910 C.2   202  GLU202      0.2260
    117  O          7.1670    2.2150    3.2060 O.2   202  GLU202     -0.2867
    118  CB         9.0500    2.3330    1.2150 C.3   202  GLU202      0.0388
    119  CG         9.4960    3.6900    1.7600 C.3   202  GLU202      0.1160
    120  CD        11.0030    3.7560    1.9290 C.2   202  GLU202      0.3649
    121  OE1       11.5730    2.7600    2.4220 O.co2 202  GLU202     -0.2457
    122  OE2       11.6160    4.7830    1.5620 O.co2 202  GLU202     -0.2457
    123  N          5.3820    0.3550    5.2900 N.3   204  PHE204     -0.1241
    124  CA         5.8200   -0.5800    6.3160 C.3   204  PHE204      0.1605
    125  C          4.5880   -1.0420    7.1010 C.2   204  PHE204      0.2264
    126  O          3.9230   -0.2280    7.7540 O.2   204  PHE204     -0.2867
    127  CB         6.8130    0.0900    7.2750 C.3   204  PHE204      0.0534
    128  CG         8.1930    0.2880    6.6990 C.ar  204  PHE204     -0.0203
    129  CD1        8.5150    1.4530    6.0290 C.ar  204  PHE204     -0.0042
    130  CD2        9.1680   -0.6840    6.8500 C.ar  204  PHE204     -0.0042
    131  CE1        9.7800    1.6400    5.5110 C.ar  204  PHE204     -0.0003
    132  CE2       10.4320   -0.5050    6.3290 C.ar  204  PHE204     -0.0003
    133  CZ        10.7340    0.6540    5.6530 C.ar  204  PHE204     -0.0000
    134  N         22.6610    2.0620   13.4860 N.3   219  TRP219     -0.1241
    135  CA        21.9390    2.1220   12.2260 C.3   219  TRP219      0.1605
    136  C         20.5610    1.4630   12.2920 C.2   219  TRP219      0.2264
    137  O         19.5730    2.0680   11.9050 O.2   219  TRP219     -0.2867
    138  CB        22.7730    1.4900   11.1100 C.3   219  TRP219      0.0550
    139  CG        23.8510    2.3910   10.6100 C.ar  219  TRP219      0.0003
    140  CD1       25.1860    2.2990   10.8740 C.ar  219  TRP219      0.0946
    141  CD2       23.6900    3.5310    9.7620 C.ar  219  TRP219      0.0152
    142  NE1       25.8660    3.3100   10.2390 N.ar  219  TRP219     -0.2442
    143  CE2       24.9690    4.0830    9.5510 C.ar  219  TRP219      0.0810
    144  CE3       22.5900    4.1460    9.1570 C.ar  219  TRP219      0.0012
    145  CZ2       25.1760    5.2060    8.7590 C.ar  219  TRP219      0.0191
    146  CZ3       22.8000    5.2670    8.3750 C.ar  219  TRP219      0.0001
    147  CH2       24.0820    5.7820    8.1830 C.ar  219  TRP219      0.0015
    148  N         16.9680   -0.0370   12.7970 N.3   221  PHE221     -0.1241
    149  CA        15.6890    0.2570   13.4290 C.3   221  PHE221      0.1605
    150  C         14.9900   -1.0410   13.7800 C.2   221  PHE221      0.2264
    151  O         14.8960   -1.9490   12.9610 O.2   221  PHE221     -0.2867
    152  CB        14.7860    1.0420   12.4800 C.3   221  PHE221      0.0534
    153  CG        15.3510    2.3690   12.0540 C.ar  221  PHE221     -0.0203
    154  CD1       16.1850    3.0860   12.8900 C.ar  221  PHE221     -0.0042
    155  CD2       15.0500    2.8910   10.8070 C.ar  221  PHE221     -0.0042
    156  CE1       16.7080    4.3130   12.4900 C.ar  221  PHE221     -0.0003
    157  CE2       15.5610    4.1100   10.4080 C.ar  221  PHE221     -0.0003
    158  CZ        16.3890    4.8210   11.2490 C.ar  221  PHE221     -0.0000
    159  N          8.9190   -1.5940   -1.4120 N.3   233  GLU233     -0.1245
    160  CA         9.3100   -0.2800   -1.8990 C.3   233  GLU233      0.1567
    161  C          9.5920   -0.3080   -3.3940 C.2   233  GLU233      0.2260
    162  O         10.2610   -1.2090   -3.8840 O.2   233  GLU233     -0.2867
    163  CB        10.5610    0.2020   -1.1710 C.3   233  GLU233      0.0388
    164  CG        11.0620    1.5560   -1.6270 C.3   233  GLU233      0.1160
    165  CD        12.2890    1.9960   -0.8710 C.2   233  GLU233      0.3649
    166  OE1       13.0660    1.1810   -0.3640 O.co2 233  GLU233     -0.2457
    167  OE2       12.4700    3.1850   -0.7950 O.co2 233  GLU233     -0.2457
@<TRIPOS>BOND
     1    63    64    1
     2    66    65    2
     3    64    65    1
     4    64    67    1
     5    59    58    1
     6    59    60    2
     7   162   161    2
     8    58    57    1
     9    58    61    1
    10    67    68    1
    11   161   160    1
    12    96    97    1
    13    61    62    1
    14    89    88    2
    15    97    98    1
    16    97   100    1
    17    68    69   ar
    18    68    70   ar
    19    99    98    2
    20   160   159    1
    21   160   163    1
    22   102   101    1
    23    98   104   am
    24   164   163    1
    25   164   165    1
    26    88    87    1
    27   100   101    1
    28   104   105    1
    29   165   167   ar
    30   165   166   ar
    31    94    92   ar
    32    94    95   ar
    33   106   107    2
    34   106   105    1
    35    92    91   ar
    36   101   103    1
    37     7     1    1
    38     7     6    1
    39   105   108    1
    40    51    52    2
    41    51    50    1
    42    95    93   ar
    43     1     2    1
    44    87    86    1
    45    87    90    1
    46   114   115    1
    47    91    93   ar
    48    91    90    1
    49    56    54   ar
    50    50    49    1
    51    50    53    1
    52     6     5    1
    53   115   118    1
    54   115   116    1
    55   108   109    1
    56   118   119    1
    57    54    53    1
    58    54    55   ar
    59     2     3    1
    60     2     5    1
    61   122   120   ar
    62     3     4    2
    63   109   111   ar
    64   109   110   ar
    65   119   120    1
    66   120   121   ar
    67   111   113   ar
    68   110   112   ar
    69   116   117    2
    70   113   112   ar
    71     8     9    1
    72    28    29    1
    73    31    30    2
    74    13    12    1
    75    13    14    1
    76    16    14   ar
    77    82    81    2
    78    81    80    1
    79    29    30    1
    80    29    32    1
    81     9    12    1
    82     9    10    1
    83    20    19    2
    84    33    32    1
    85    14    15   ar
    86    10    11    2
    87    17    18    1
    88    21    18    1
    89    21    22    1
    90    24    22   ar
    91    24    26   ar
    92   123   124    1
    93    84    83    1
    94    19    18    1
    95    80    83    1
    96    80    79    1
    97   131   133   ar
    98   131   129   ar
    99    22    23   ar
   100    83    85    1
   101   133   132   ar
   102    26    27   ar
   103   129   128   ar
   104   124   125    1
   105   124   127    1
   106   132   130   ar
   107    79    73   am
   108    23    25   ar
   109   128   130   ar
   110   128   127    1
   111    27    25   ar
   112    48    46   ar
   113    48    47   ar
   114   125   126    2
   115    46    44   ar
   116    74    73    2
   117    73    72    1
   118    47    45   ar
   119    39    40    1
   120    39    36   am
   121    40    41    1
   122    40    43    1
   123    38    35    1
   124    44    45   ar
   125    44    43    1
   126   147   146   ar
   127   147   145   ar
   128   146   144   ar
   129    35    36    1
   130    35    34    1
   131    75    72    1
   132    75    76    1
   133    72    71    1
   134    41    42    2
   135   145   143   ar
   136    36    37    2
   137   144   141   ar
   138    77    76    1
   139   143   141   ar
   140   143   142   ar
   141    76    78    1
   142   141   139   ar
   143   142   140   ar
   144   157   155   ar
   145   157   158   ar
   146   139   140   ar
   147   139   138    1
   148   155   153   ar
   149   138   135    1
   150   158   156   ar
   151   137   136    2
   152   153   152    1
   153   153   154   ar
   154   135   136    1
   155   135   134    1
   156   152   149    1
   157   156   154   ar
   158   148   149    1
   159   151   150    2
   160   149   150    1
