@<TRIPOS>MOLECULE
tmp/1qy1A00.pdb
 161 147 0 0 0
SMALL
GASTEIGER

@<TRIPOS>ATOM
      1  N         48.0600   17.0090   47.7820 N.3    24  LEU24      -0.1245
      2  CA        48.3420   16.9250   46.3170 C.3    24  LEU24       0.1561
      3  C         47.9980   15.5020   45.8560 C.2    24  LEU24       0.2260
      4  O         48.0820   14.5530   46.6290 O.2    24  LEU24      -0.2867
      5  CB        49.8220   17.1810   45.9980 C.3    24  LEU24       0.0270
      6  CG        50.2290   18.6210   46.3200 C.3    24  LEU24       0.0019
      7  CD1       51.7460   18.7860   45.9990 C.3    24  LEU24       0.0001
      8  CD2       49.4210   19.6140   45.5170 C.3    24  LEU24       0.0001
      9  N         56.7380   18.4580   41.3520 N.3    38  PHE38      -0.1241
     10  CA        55.3980   19.0230   41.5990 C.3    38  PHE38       0.1605
     11  C         54.9380   19.0020   43.0610 C.2    38  PHE38       0.2264
     12  O         53.7860   19.3330   43.3970 O.2    38  PHE38      -0.2867
     13  CB        54.3630   18.3860   40.6720 C.3    38  PHE38       0.0534
     14  CG        54.5330   18.8320   39.2430 C.ar   38  PHE38      -0.0203
     15  CD1       55.5450   18.2400   38.4410 C.ar   38  PHE38      -0.0042
     16  CD2       53.7960   19.8810   38.7510 C.ar   38  PHE38      -0.0042
     17  CE1       55.7930   18.7110   37.1770 C.ar   38  PHE38      -0.0003
     18  CE2       54.0450   20.3870   37.4550 C.ar   38  PHE38      -0.0003
     19  CZ        55.0740   19.7620   36.6770 C.ar   38  PHE38      -0.0000
     20  N         54.8020   21.0240   45.3950 N.3    40  LEU40      -0.1245
     21  CA        54.9060   22.4480   45.5820 C.3    40  LEU40       0.1561
     22  C         53.9880   22.9410   46.6640 C.2    40  LEU40       0.2260
     23  O         52.8050   22.5840   46.7290 O.2    40  LEU40      -0.2867
     24  CB        54.5880   23.1990   44.2760 C.3    40  LEU40       0.0270
     25  CG        55.5550   22.8420   43.1240 C.3    40  LEU40       0.0019
     26  CD1       55.2100   23.6300   41.8970 C.3    40  LEU40       0.0001
     27  CD2       56.9990   23.0900   43.5860 C.3    40  LEU40       0.0001
     28  N         52.1160   25.9670   48.0120 N.3    42  LEU42      -0.1245
     29  CA        51.6350   27.2580   47.6360 C.3    42  LEU42       0.1561
     30  C         51.6500   28.1980   48.8370 C.2    42  LEU42       0.2260
     31  O         51.4340   27.7760   49.9940 O.2    42  LEU42      -0.2867
     32  CB        50.2020   27.1370   47.0390 C.3    42  LEU42       0.0270
     33  CG        49.5450   28.3980   46.4740 C.3    42  LEU42       0.0019
     34  CD1       50.3790   28.8480   45.2350 C.3    42  LEU42       0.0001
     35  CD2       48.1190   28.0860   46.0660 C.3    42  LEU42       0.0001
     36  N         48.4820   33.6400   45.8580 N.3    45  ILE45      -0.1245
     37  CA        48.0540   33.7930   44.4770 C.3    45  ILE45       0.1561
     38  C         47.8270   35.2700   44.2960 C.2    45  ILE45       0.2260
     39  O         47.0480   35.8600   45.0000 O.2    45  ILE45      -0.2867
     40  CB        46.7150   33.0420   44.1960 C.3    45  ILE45       0.0252
     41  CG1       46.9830   31.5360   44.2280 C.3    45  ILE45       0.0019
     42  CG2       46.1610   33.4820   42.7410 C.3    45  ILE45       0.0019
     43  CD1       45.6950   30.6760   44.0450 C.3    45  ILE45       0.0001
     44  N         51.8340   32.9090   40.9130 N.3    54  LEU54      -0.1245
     45  CA        51.7860   31.8820   41.9460 C.3    54  LEU54       0.1561
     46  C         53.0840   31.8400   42.7090 C.2    54  LEU54       0.2260
     47  O         54.1590   31.6170   42.1020 O.2    54  LEU54      -0.2867
     48  CB        51.5680   30.5380   41.2690 C.3    54  LEU54       0.0270
     49  CG        50.3700   30.4990   40.3290 C.3    54  LEU54       0.0019
     50  CD1       50.3480   29.1200   39.6850 C.3    54  LEU54       0.0001
     51  CD2       49.0850   30.7210   41.0920 C.3    54  LEU54       0.0001
     52  N         55.3500   29.8970   45.5020 N.3    56  PHE56      -0.1241
     53  CA        55.5080   28.6120   46.1850 C.3    56  PHE56       0.1605
     54  C         56.8220   28.5030   46.8930 C.2    56  PHE56       0.2264
     55  O         57.7180   29.3510   46.7330 O.2    56  PHE56      -0.2867
     56  CB        55.5990   27.3990   45.1910 C.3    56  PHE56       0.0534
     57  CG        54.4080   27.2350   44.2570 C.ar   56  PHE56      -0.0203
     58  CD1       54.4330   27.8360   43.0110 C.ar   56  PHE56      -0.0042
     59  CD2       53.3080   26.4270   44.6120 C.ar   56  PHE56      -0.0042
     60  CE1       53.3830   27.6320   42.1090 C.ar   56  PHE56      -0.0003
     61  CE2       52.2440   26.2410   43.6820 C.ar   56  PHE56      -0.0003
     62  CZ        52.3160   26.8500   42.4450 C.ar   56  PHE56      -0.0000
     63  N         55.9630   31.7510   39.7630 N.3    69  MET69      -0.1245
     64  CA        55.5590   31.3430   38.4330 C.3    69  MET69       0.1570
     65  C         54.4320   32.2410   38.0020 C.2    69  MET69       0.2261
     66  O         53.6110   32.6290   38.8350 O.2    69  MET69      -0.2867
     67  CB        54.9490   29.9440   38.5560 C.3    69  MET69       0.0387
     68  CG        55.4040   28.9220   37.6770 C.3    69  MET69       0.0595
     69  SD        54.5140   27.4680   38.3260 S.3    69  MET69      -0.1393
     70  CE        55.7240   26.6780   39.3130 C.3    69  MET69       0.0692
     71  N         50.9770   27.5590   32.1410 N.3    82  VAL82      -0.1245
     72  CA        52.2340   28.0060   32.6900 C.3    82  VAL82       0.1561
     73  C         53.3360   27.0380   32.3680 C.2    82  VAL82       0.2260
     74  O         53.1220   25.8240   32.3310 O.2    82  VAL82      -0.2867
     75  CB        52.1320   28.2400   34.2240 C.3    82  VAL82       0.0252
     76  CG1       51.7200   26.9460   34.9150 C.3    82  VAL82       0.0019
     77  CG2       53.5100   28.7480   34.7650 C.3    82  VAL82       0.0019
     78  N         56.5030   25.0860   33.3790 N.3    84  TYR84      -0.1241
     79  CA        57.2340   24.6410   34.5530 C.3    84  TYR84       0.1605
     80  C         57.3910   23.1340   34.3920 C.2    84  TYR84       0.2264
     81  O         56.4100   22.4070   34.3970 O.2    84  TYR84      -0.2867
     82  CB        56.4250   24.9000   35.8400 C.3    84  TYR84       0.0534
     83  CG        57.0760   24.3140   37.0680 C.ar   84  TYR84      -0.0201
     84  CD1       58.2480   24.8240   37.5640 C.ar   84  TYR84      -0.0009
     85  CD2       56.5330   23.1970   37.6910 C.ar   84  TYR84      -0.0009
     86  CE1       58.8780   24.2580   38.6320 C.ar   84  TYR84       0.0417
     87  CE2       57.1350   22.6040   38.7490 C.ar   84  TYR84       0.0417
     88  CZ        58.3370   23.1200   39.2420 C.ar   84  TYR84       0.1957
     89  OH        58.9760   22.4730   40.2870 O.3    84  TYR84      -0.2866
     90  N         52.0820   23.2910   31.1990 N.3    88  ASN88      -0.1240
     91  CA        50.9270   22.9890   32.0440 C.3    88  ASN88       0.1653
     92  C         49.7160   23.8310   31.7440 C.2    88  ASN88       0.2266
     93  O         49.8490   24.9870   31.4080 O.2    88  ASN88      -0.2867
     94  CB        51.2810   23.3100   33.4950 C.3    88  ASN88       0.1155
     95  CG        52.5370   22.6040   33.9360 C.2    88  ASN88       0.2627
     96  OD1       52.5080   21.4310   34.2760 O.2    88  ASN88      -0.2716
     97  ND2       53.6480   23.3190   33.9380 N.am   88  ASN88      -0.0877
     98  N         45.7970   24.5510   33.6190 N.3    90  PHE90      -0.1241
     99  CA        44.9840   24.1350   34.7560 C.3    90  PHE90       0.1605
    100  C         43.6920   24.9430   34.8840 C.2    90  PHE90       0.2264
    101  O         43.5390   25.9710   34.2640 O.2    90  PHE90      -0.2867
    102  CB        45.7560   24.2470   36.0690 C.3    90  PHE90       0.0534
    103  CG        46.1430   25.6820   36.4650 C.ar   90  PHE90      -0.0203
    104  CD1       47.3870   26.1720   36.1490 C.ar   90  PHE90      -0.0042
    105  CD2       45.2480   26.4810   37.1870 C.ar   90  PHE90      -0.0042
    106  CE1       47.7640   27.4450   36.5380 C.ar   90  PHE90      -0.0003
    107  CE2       45.6170   27.7860   37.5810 C.ar   90  PHE90      -0.0003
    108  CZ        46.8860   28.2590   37.2530 C.ar   90  PHE90      -0.0000
    109  N         40.2320   25.5810   37.9380 N.3    92  ILE92      -0.1245
    110  CA        39.8510   25.4100   39.3480 C.3    92  ILE92       0.1561
    111  C         38.4120   24.8650   39.3410 C.2    92  ILE92       0.2260
    112  O         37.4450   25.6300   39.3060 O.2    92  ILE92      -0.2867
    113  CB        39.8870   26.7690   40.0400 C.3    92  ILE92       0.0252
    114  CG1       41.3590   27.2320   40.0520 C.3    92  ILE92       0.0019
    115  CG2       39.4330   26.6900   41.5240 C.3    92  ILE92       0.0019
    116  CD1       41.5300   28.6090   40.5350 C.3    92  ILE92       0.0001
    117  N         40.3770   25.6720   47.8300 N.3   101  LEU101     -0.1245
    118  CA        40.5170   25.8400   46.3980 C.3   101  LEU101      0.1561
    119  C         40.9830   24.4980   45.8640 C.2   101  LEU101      0.2260
    120  O         41.9470   23.9510   46.3910 O.2   101  LEU101     -0.2867
    121  CB        41.5320   26.9350   46.0810 C.3   101  LEU101      0.0270
    122  CG        41.5880   27.3480   44.5870 C.3   101  LEU101      0.0019
    123  CD1       42.1040   28.7720   44.5140 C.3   101  LEU101      0.0001
    124  CD2       42.4790   26.3370   43.7860 C.3   101  LEU101      0.0001
    125  N         42.2450   22.5260   42.4520 N.3   103  ALA103     -0.1245
    126  CA        42.7530   22.7540   41.0990 C.3   103  ALA103      0.1562
    127  C         43.0130   21.4480   40.4070 C.2   103  ALA103      0.2260
    128  O         43.3470   20.4540   41.0600 O.2   103  ALA103     -0.2867
    129  CB        44.1010   23.5410   41.1340 C.3   103  ALA103      0.0290
    130  N         45.2460   20.0840   37.0670 N.3   105  LEU105     -0.1245
    131  CA        46.2870   20.5010   36.1400 C.3   105  LEU105      0.1561
    132  C         46.6860   19.3190   35.2450 C.2   105  LEU105      0.2260
    133  O         46.6690   18.1540   35.6800 O.2   105  LEU105     -0.2867
    134  CB        47.5280   20.9490   36.9650 C.3   105  LEU105      0.0270
    135  CG        48.7280   21.3920   36.1230 C.3   105  LEU105      0.0019
    136  CD1       49.5570   22.4320   36.9000 C.3   105  LEU105      0.0001
    137  CD2       49.6240   20.1580   35.8380 C.3   105  LEU105      0.0001
    138  N         47.5390   16.3260   37.7100 N.3   116  LEU116     -0.1245
    139  CA        47.8390   16.7090   39.0960 C.3   116  LEU116      0.1561
    140  C         46.5950   17.4040   39.6340 C.2   116  LEU116      0.2260
    141  O         45.9520   18.1780   38.9050 O.2   116  LEU116     -0.2867
    142  CB        49.0370   17.6610   39.1370 C.3   116  LEU116      0.0270
    143  CG        49.4480   18.1920   40.5140 C.3   116  LEU116      0.0019
    144  CD1       50.5100   17.3500   41.1740 C.3   116  LEU116      0.0001
    145  CD2       50.0950   19.5210   40.2700 C.3   116  LEU116      0.0001
    146  N         45.1110   19.4770   43.2200 N.3   118  GLY118     -0.1225
    147  CA        45.6570   20.0590   44.4430 C.3   118  GLY118      0.1811
    148  C         44.5100   20.6400   45.2810 C.2   118  GLY118      0.2280
    149  O         43.5340   21.1400   44.7440 O.2   118  GLY118     -0.2866
    150  N         44.0400   23.3510   48.2670 N.3   120  TYR120     -0.1241
    151  CA        44.7400   24.4300   48.9740 C.3   120  TYR120      0.1605
    152  C         43.7310   25.0780   49.9450 C.2   120  TYR120      0.2264
    153  O         42.5390   25.0920   49.7380 O.2   120  TYR120     -0.2867
    154  CB        45.1690   25.4620   47.9070 C.3   120  TYR120      0.0534
    155  CG        45.9460   24.8350   46.7830 C.ar  120  TYR120     -0.0201
    156  CD1       47.3140   24.6000   46.9240 C.ar  120  TYR120     -0.0009
    157  CD2       45.2990   24.4040   45.6240 C.ar  120  TYR120     -0.0009
    158  CE1       47.9790   23.9110   45.9350 C.ar  120  TYR120      0.0417
    159  CE2       45.9610   23.7340   44.6150 C.ar  120  TYR120      0.0417
    160  CZ        47.2880   23.4810   44.7860 C.ar  120  TYR120      0.1957
    161  OH        47.9920   22.7080   43.8500 O.3   120  TYR120     -0.2866
@<TRIPOS>BOND
     1    90    91    1
     2    93    92    2
     3    92    91    1
     4    91    94    1
     5    71    72    1
     6    74    73    2
     7    73    72    1
     8    72    75    1
     9    78    79    1
    10    94    95    1
    11    98    99    1
    12    95    97   am
    13    95    96    2
    14    75    77    1
    15    75    76    1
    16   101   100    2
    17    80    81    2
    18    80    79    1
    19    79    82    1
    20    99   100    1
    21    99   102    1
    22   132   133    2
    23   132   131    1
    24   137   135    1
    25    82    83    1
    26   102   103    1
    27   135   136    1
    28   135   134    1
    29   131   134    1
    30   131   130    1
    31   104   103   ar
    32   104   106   ar
    33   103   105   ar
    34   106   108   ar
    35    19    17   ar
    36    19    18   ar
    37    83    84   ar
    38    83    85   ar
    39    17    15   ar
    40   105   107   ar
    41   108   107   ar
    42    18    16   ar
    43    84    86   ar
    44    68    69    1
    45    68    67    1
    46    85    87   ar
    47   138   139    1
    48   109   110    1
    49    65    64    1
    50    65    66    2
    51    69    70    1
    52    64    67    1
    53    64    63    1
    54    15    14   ar
    55    86    88   ar
    56    87    88   ar
    57    16    14   ar
    58   141   140    2
    59   139   142    1
    60   139   140    1
    61   142   143    1
    62    88    89    1
    63    14    13    1
    64   112   111    2
    65   111   110    1
    66   110   113    1
    67    50    49    1
    68   113   114    1
    69   113   115    1
    70   114   116    1
    71   145   143    1
    72    49    51    1
    73    49    48    1
    74   127   128    2
    75   127   126    1
    76   143   144    1
    77    13    10    1
    78    44    45    1
    79   126   129    1
    80   126   125    1
    81    48    45    1
    82     9    10    1
    83    10    11    1
    84    26    25    1
    85    45    46    1
    86    47    46    2
    87    60    62   ar
    88    60    58   ar
    89    62    61   ar
    90    42    40    1
    91    58    57   ar
    92    11    12    2
    93    25    27    1
    94    25    24    1
    95   146   147    1
    96    61    59   ar
    97   124   122    1
    98   161   160    1
    99    43    41    1
   100    40    41    1
   101    40    37    1
   102    57    59   ar
   103    57    56    1
   104    24    21    1
   105    38    37    1
   106    38    39    2
   107   147   148    1
   108    37    36    1
   109   123   122    1
   110   122   121    1
   111   159   160   ar
   112   159   157   ar
   113   149   148    2
   114   160   158   ar
   115    56    53    1
   116    34    33    1
   117    20    21    1
   118    52    53    1
   119     8     6    1
   120    21    22    1
   121   157   155   ar
   122     3     2    1
   123     3     4    2
   124   119   120    2
   125   119   118    1
   126   158   156   ar
   127     5     2    1
   128     5     6    1
   129     7     6    1
   130    35    33    1
   131   121   118    1
   132    53    54    1
   133     2     1    1
   134   118   117    1
   135    33    32    1
   136    22    23    2
   137    55    54    2
   138   155   156   ar
   139   155   154    1
   140    32    29    1
   141    29    28    1
   142    29    30    1
   143   154   151    1
   144   150   151    1
   145    30    31    2
   146   151   152    1
   147   153   152    2
