@<TRIPOS>MOLECULE
tmp/1qy2A00.pdb
 141 130 0 0 0
SMALL
GASTEIGER

@<TRIPOS>ATOM
      1  N         47.7720   16.8020   47.7850 N.3    24  LEU24      -0.1245
      2  CA        48.0880   16.7740   46.3330 C.3    24  LEU24       0.1561
      3  C         47.7770   15.3670   45.8660 C.2    24  LEU24       0.2260
      4  O         47.8840   14.3840   46.6510 O.2    24  LEU24      -0.2867
      5  CB        49.5980   17.0630   46.0520 C.3    24  LEU24       0.0270
      6  CG        49.9880   18.5170   46.3890 C.3    24  LEU24       0.0019
      7  CD1       51.5420   18.6460   46.1220 C.3    24  LEU24       0.0001
      8  CD2       49.2130   19.5180   45.5370 C.3    24  LEU24       0.0001
      9  N         56.5020   18.3350   41.3770 N.3    38  PHE38      -0.1241
     10  CA        55.1770   18.8980   41.6490 C.3    38  PHE38       0.1605
     11  C         54.7130   18.8590   43.1060 C.2    38  PHE38       0.2264
     12  O         53.5120   19.1120   43.4050 O.2    38  PHE38      -0.2867
     13  CB        54.1390   18.2560   40.7260 C.3    38  PHE38       0.0534
     14  CG        54.3230   18.6600   39.2980 C.ar   38  PHE38      -0.0203
     15  CD1       55.3370   18.0700   38.5170 C.ar   38  PHE38      -0.0042
     16  CD2       53.5520   19.6500   38.7610 C.ar   38  PHE38      -0.0042
     17  CE1       55.5500   18.4940   37.1970 C.ar   38  PHE38      -0.0003
     18  CE2       53.7590   20.0890   37.4540 C.ar   38  PHE38      -0.0003
     19  CZ        54.7670   19.4950   36.6810 C.ar   38  PHE38      -0.0000
     20  N         54.6230   20.8510   45.4480 N.3    40  LEU40      -0.1245
     21  CA        54.7410   22.3000   45.6620 C.3    40  LEU40       0.1561
     22  C         53.8110   22.7610   46.7660 C.2    40  LEU40       0.2260
     23  O         52.6380   22.3870   46.7930 O.2    40  LEU40      -0.2867
     24  CB        54.3840   23.0550   44.3800 C.3    40  LEU40       0.0270
     25  CG        55.3150   22.6810   43.2110 C.3    40  LEU40       0.0019
     26  CD1       54.9460   23.5180   42.0250 C.3    40  LEU40       0.0001
     27  CD2       56.8120   22.8620   43.6130 C.3    40  LEU40       0.0001
     28  N         51.8880   25.8040   48.0540 N.3    42  LEU42      -0.1245
     29  CA        51.4130   27.0920   47.6520 C.3    42  LEU42       0.1561
     30  C         51.3860   28.0200   48.8770 C.2    42  LEU42       0.2260
     31  O         51.1260   27.5670   50.0360 O.2    42  LEU42      -0.2867
     32  CB        49.9890   26.9330   47.0450 C.3    42  LEU42       0.0270
     33  CG        49.3930   28.2220   46.4590 C.3    42  LEU42       0.0019
     34  CD1       50.2740   28.7530   45.3080 C.3    42  LEU42       0.0001
     35  CD2       47.9300   27.9390   45.9610 C.3    42  LEU42       0.0001
     36  N         48.2660   33.4220   45.9620 N.3    45  ILE45      -0.1245
     37  CA        47.8910   33.6230   44.5580 C.3    45  ILE45       0.1561
     38  C         47.6480   35.1100   44.4020 C.2    45  ILE45       0.2260
     39  O         46.8250   35.6870   45.1110 O.2    45  ILE45      -0.2867
     40  CB        46.5970   32.9100   44.2220 C.3    45  ILE45       0.0252
     41  CG1       46.8030   31.3810   44.3450 C.3    45  ILE45       0.0019
     42  CG2       46.1230   33.3670   42.7690 C.3    45  ILE45       0.0019
     43  CD1       45.5360   30.5340   44.0240 C.3    45  ILE45       0.0001
     44  N         51.6340   32.7660   41.0020 N.3    54  LEU54      -0.1245
     45  CA        51.6370   31.7350   42.0300 C.3    54  LEU54       0.1561
     46  C         52.9530   31.7080   42.7860 C.2    54  LEU54       0.2260
     47  O         54.0110   31.5480   42.1890 O.2    54  LEU54      -0.2867
     48  CB        51.3880   30.3680   41.3660 C.3    54  LEU54       0.0270
     49  CG        50.2140   30.2920   40.3810 C.3    54  LEU54       0.0019
     50  CD1       50.1300   28.8700   39.8090 C.3    54  LEU54       0.0001
     51  CD2       48.9090   30.6540   41.0900 C.3    54  LEU54       0.0001
     52  N         55.1560   29.7150   45.5780 N.3    56  PHE56      -0.1241
     53  CA        55.2920   28.4320   46.2750 C.3    56  PHE56       0.1605
     54  C         56.6440   28.3280   47.0050 C.2    56  PHE56       0.2264
     55  O         57.5210   29.1800   46.8730 O.2    56  PHE56      -0.2867
     56  CB        55.3860   27.2220   45.2980 C.3    56  PHE56       0.0534
     57  CG        54.2240   27.0560   44.3680 C.ar   56  PHE56      -0.0203
     58  CD1       54.2650   27.6220   43.1060 C.ar   56  PHE56      -0.0042
     59  CD2       53.1200   26.2800   44.7290 C.ar   56  PHE56      -0.0042
     60  CE1       53.2230   27.4220   42.1940 C.ar   56  PHE56      -0.0003
     61  CE2       52.0610   26.0670   43.7950 C.ar   56  PHE56      -0.0003
     62  CZ        52.1360   26.6510   42.5350 C.ar   56  PHE56      -0.0000
     63  N         55.7940   31.5770   39.8430 N.3    69  MET69      -0.1245
     64  CA        55.4220   31.1450   38.5190 C.3    69  MET69       0.1570
     65  C         54.2470   31.9890   38.0730 C.2    69  MET69       0.2261
     66  O         53.4170   32.3320   38.8920 O.2    69  MET69      -0.2867
     67  CB        54.9840   29.6940   38.7150 C.3    69  MET69       0.0387
     68  CG        54.8370   28.8430   37.5810 C.3    69  MET69       0.0595
     69  SD        54.2990   27.3190   38.3910 S.3    69  MET69      -0.1393
     70  CE        55.6470   26.8790   39.3620 C.3    69  MET69       0.0692
     71  N         50.7480   27.4450   32.2060 N.3    82  VAL82      -0.1245
     72  CA        52.0420   27.8510   32.7720 C.3    82  VAL82       0.1561
     73  C         53.1290   26.8620   32.4370 C.2    82  VAL82       0.2260
     74  O         52.9040   25.6190   32.4270 O.2    82  VAL82      -0.2867
     75  CB        51.9660   28.0370   34.3320 C.3    82  VAL82       0.0252
     76  CG1       51.6680   26.6960   34.9960 C.3    82  VAL82       0.0019
     77  CG2       53.3160   28.5720   34.8740 C.3    82  VAL82       0.0019
     78  N         56.3330   24.9670   33.4410 N.3    84  TYR84      -0.1241
     79  CA        57.0180   24.4720   34.6270 C.3    84  TYR84       0.1605
     80  C         57.1690   22.9420   34.4520 C.2    84  TYR84       0.2264
     81  O         56.1910   22.2080   34.4650 O.2    84  TYR84      -0.2867
     82  CB        56.2060   24.7560   35.8810 C.3    84  TYR84       0.0534
     83  CG        56.8470   24.1670   37.1150 C.ar   84  TYR84      -0.0201
     84  CD1       58.0410   24.6750   37.6120 C.ar   84  TYR84      -0.0009
     85  CD2       56.3140   23.0400   37.7160 C.ar   84  TYR84      -0.0009
     86  CE1       58.6740   24.0940   38.6410 C.ar   84  TYR84       0.0417
     87  CE2       56.9460   22.4280   38.7630 C.ar   84  TYR84       0.0417
     88  CZ        58.1330   22.9500   39.2340 C.ar   84  TYR84       0.1957
     89  OH        58.7870   22.3670   40.2880 O.3    84  TYR84      -0.2866
     90  N         51.8750   23.1390   31.2360 N.3    88  ASN88      -0.1240
     91  CA        50.7010   22.8560   32.0940 C.3    88  ASN88       0.1653
     92  C         49.4890   23.7180   31.8040 C.2    88  ASN88       0.2266
     93  O         49.6330   24.9110   31.4640 O.2    88  ASN88      -0.2867
     94  CB        51.0590   23.1310   33.5660 C.3    88  ASN88       0.1155
     95  CG        52.3220   22.4220   34.0090 C.2    88  ASN88       0.2627
     96  OD1       52.3020   21.2280   34.3400 O.2    88  ASN88      -0.2716
     97  ND2       53.4430   23.1640   34.0390 N.am   88  ASN88      -0.0877
     98  N         45.5750   24.3970   33.7110 N.3    90  PHE90      -0.1241
     99  CA        44.7500   24.0150   34.8550 C.3    90  PHE90       0.1605
    100  C         43.4760   24.8360   34.9550 C.2    90  PHE90       0.2264
    101  O         43.3280   25.9300   34.3450 O.2    90  PHE90      -0.2867
    102  CB        45.5410   24.0650   36.1780 C.3    90  PHE90       0.0534
    103  CG        45.9350   25.4670   36.6100 C.ar   90  PHE90      -0.0203
    104  CD1       47.1570   26.0070   36.2310 C.ar   90  PHE90      -0.0042
    105  CD2       45.0790   26.2090   37.4230 C.ar   90  PHE90      -0.0042
    106  CE1       47.5600   27.2830   36.6530 C.ar   90  PHE90      -0.0003
    107  CE2       45.4840   27.5330   37.8590 C.ar   90  PHE90      -0.0003
    108  CZ        46.7490   28.0360   37.4540 C.ar   90  PHE90      -0.0000
    109  N         42.0690   22.4300   42.5100 N.3   103  ALA103     -0.1245
    110  CA        42.6040   22.6280   41.1410 C.3   103  ALA103      0.1562
    111  C         42.8030   21.3010   40.4580 C.2   103  ALA103      0.2260
    112  O         43.0950   20.2810   41.1150 O.2   103  ALA103     -0.2867
    113  CB        43.9860   23.3300   41.1930 C.3   103  ALA103      0.0290
    114  N         44.9920   19.9570   37.1580 N.3   105  LEU105     -0.1245
    115  CA        46.0600   20.3330   36.1960 C.3   105  LEU105      0.1561
    116  C         46.4690   19.1720   35.2970 C.2   105  LEU105      0.2260
    117  O         46.4880   18.0060   35.7070 O.2   105  LEU105     -0.2867
    118  CB        47.2840   20.8060   36.9640 C.3   105  LEU105      0.0270
    119  CG        48.5640   21.1320   36.1720 C.3   105  LEU105      0.0019
    120  CD1       49.3220   22.2150   36.9240 C.3   105  LEU105      0.0001
    121  CD2       49.4410   19.9500   36.0110 C.3   105  LEU105      0.0001
    122  N         47.3340   16.2090   37.7190 N.3   116  LEU116     -0.1245
    123  CA        47.6020   16.5860   39.1100 C.3   116  LEU116      0.1561
    124  C         46.3370   17.2720   39.6480 C.2   116  LEU116      0.2260
    125  O         45.6680   18.0390   38.9400 O.2   116  LEU116     -0.2867
    126  CB        48.8020   17.5320   39.2300 C.3   116  LEU116      0.0270
    127  CG        49.0930   18.0060   40.6600 C.3   116  LEU116      0.0019
    128  CD1       50.5830   18.2030   40.8990 C.3   116  LEU116      0.0001
    129  CD2       48.3410   19.2900   40.8800 C.3   116  LEU116      0.0001
    130  N         43.7930   23.1780   48.3300 N.3   120  TYR120     -0.1241
    131  CA        44.5070   24.2480   49.0540 C.3   120  TYR120      0.1605
    132  C         43.5330   24.8800   50.0200 C.2   120  TYR120      0.2264
    133  O         42.3170   24.9290   49.7870 O.2   120  TYR120     -0.2867
    134  CB        44.9470   25.3050   48.0700 C.3   120  TYR120      0.0534
    135  CG        45.6590   24.6730   46.8940 C.ar  120  TYR120     -0.0201
    136  CD1       47.0470   24.4770   46.9040 C.ar  120  TYR120     -0.0009
    137  CD2       44.9180   24.2210   45.7760 C.ar  120  TYR120     -0.0009
    138  CE1       47.6630   23.8260   45.8290 C.ar  120  TYR120      0.0417
    139  CE2       45.5300   23.5940   44.7210 C.ar  120  TYR120      0.0417
    140  CZ        46.8930   23.3880   44.7450 C.ar  120  TYR120      0.1957
    141  OH        47.4850   22.6880   43.6740 O.3   120  TYR120     -0.2866
@<TRIPOS>BOND
     1    90    91    1
     2    93    92    2
     3    92    91    1
     4    91    94    1
     5    71    72    1
     6    74    73    2
     7    73    72    1
     8    72    75    1
     9    78    79    1
    10    94    95    1
    11    98    99    1
    12    95    97   am
    13    95    96    2
    14    75    77    1
    15    75    76    1
    16   101   100    2
    17    80    81    2
    18    80    79    1
    19    79    82    1
    20    99   100    1
    21    99   102    1
    22   116   117    2
    23   116   115    1
    24    82    83    1
    25   121   119    1
    26   119   120    1
    27   119   118    1
    28   102   103    1
    29   115   118    1
    30   115   114    1
    31   104   103   ar
    32   104   106   ar
    33   103   105   ar
    34   106   108   ar
    35    19    17   ar
    36    19    18   ar
    37    83    84   ar
    38    83    85   ar
    39    17    15   ar
    40   105   107   ar
    41   108   107   ar
    42    18    16   ar
    43    68    69    1
    44    68    67    1
    45    84    86   ar
    46    85    87   ar
    47   122   123    1
    48    65    64    1
    49    65    66    2
    50    69    70    1
    51    15    14   ar
    52    64    67    1
    53    64    63    1
    54    86    88   ar
    55    16    14   ar
    56    87    88   ar
    57   125   124    2
    58   123   126    1
    59   123   124    1
    60   126   127    1
    61    88    89    1
    62    14    13    1
    63    50    49    1
    64    49    51    1
    65    49    48    1
    66   111   112    2
    67   111   110    1
    68   127   129    1
    69   127   128    1
    70    13    10    1
    71    44    45    1
    72   110   113    1
    73   110   109    1
    74    48    45    1
    75     9    10    1
    76    10    11    1
    77    26    25    1
    78    45    46    1
    79    47    46    2
    80    60    62   ar
    81    60    58   ar
    82    62    61   ar
    83    42    40    1
    84    11    12    2
    85    58    57   ar
    86    25    27    1
    87    25    24    1
    88   141   140    1
    89    61    59   ar
    90    43    41    1
    91    40    41    1
    92    40    37    1
    93    57    59   ar
    94    57    56    1
    95    24    21    1
    96    38    37    1
    97    38    39    2
    98    37    36    1
    99   139   140   ar
   100   139   137   ar
   101   140   138   ar
   102    56    53    1
   103    34    33    1
   104    20    21    1
   105     8     6    1
   106    52    53    1
   107    21    22    1
   108   137   135   ar
   109   138   136   ar
   110     3     2    1
   111     3     4    2
   112    35    33    1
   113     5     2    1
   114     5     6    1
   115     7     6    1
   116    53    54    1
   117     2     1    1
   118    33    32    1
   119    22    23    2
   120    55    54    2
   121   135   136   ar
   122   135   134    1
   123    32    29    1
   124    29    28    1
   125    29    30    1
   126   134   131    1
   127   130   131    1
   128    30    31    2
   129   131   132    1
   130   133   132    2
