@<TRIPOS>MOLECULE
tmp/1qy8A00.pdb
 141 128 0 0 0
SMALL
GASTEIGER

@<TRIPOS>ATOM
      1  N          8.9150  -19.1790   55.7100 N.3    33  LEU33      -0.1245
      2  CA         9.9390  -19.9820   56.3670 C.3    33  LEU33       0.1561
      3  C          9.9890  -21.3800   55.7500 C.2    33  LEU33       0.2260
      4  O         11.0640  -21.9960   55.6310 O.2    33  LEU33      -0.2867
      5  CB         9.6680  -20.0760   57.8720 C.3    33  LEU33       0.0270
      6  CG         9.7050  -18.7560   58.6710 C.3    33  LEU33       0.0019
      7  CD1        9.4800  -19.0780   60.1470 C.3    33  LEU33       0.0001
      8  CD2       11.0650  -18.0480   58.4860 C.3    33  LEU33       0.0001
      9  N         11.7910  -21.0380   52.4650 N.3    36  ASN36      -0.1225
     10  CA        13.2290  -20.8780   52.6950 C.3    36  ASN36       0.1785
     11  C         13.8720  -22.2220   52.9680 C.2    36  ASN36       0.2597
     12  O         14.9510  -22.5200   52.4590 O.2    36  ASN36      -0.2718
     13  CB        13.4990  -19.9570   53.8890 C.3    36  ASN36       0.1169
     14  CG        13.2960  -18.4980   53.5550 C.2    36  ASN36       0.2627
     15  OD1       13.0690  -18.1300   52.3950 O.2    36  ASN36      -0.2716
     16  ND2       13.3940  -17.6530   54.5600 N.am   36  ASN36      -0.0877
     17  N         13.2120  -23.0140   53.8010 N.am   37  ALA37      -0.1979
     18  CA        13.6950  -24.3390   54.1760 C.3    37  ALA37       0.1597
     19  C         13.8340  -25.1930   52.9000 C.2    37  ALA37       0.2287
     20  O         14.8550  -25.8490   52.6850 O.2    37  ALA37      -0.2864
     21  CB        12.7010  -24.9920   55.1390 C.3    37  ALA37       0.0319
     22  N         14.1370  -24.2650   49.7170 N.3    39  ASP39      -0.1225
     23  CA        15.2230  -23.7810   48.8790 C.3    39  ASP39       0.1805
     24  C         16.5700  -24.2200   49.4210 C.2    39  ASP39       0.2597
     25  O         17.4650  -24.5180   48.6550 O.2    39  ASP39      -0.2718
     26  CB        15.2200  -22.2560   48.7950 C.3    39  ASP39       0.1424
     27  CG        14.0600  -21.7080   47.9880 C.2    39  ASP39       0.3668
     28  OD1       13.9120  -20.4760   47.9670 O.co2  39  ASP39      -0.2456
     29  OD2       13.3100  -22.4940   47.3670 O.co2  39  ASP39      -0.2456
     30  N         16.7210  -24.2230   50.7400 N.am   40  ALA40      -0.1979
     31  CA        17.9840  -24.6270   51.3580 C.3    40  ALA40       0.1597
     32  C         18.2140  -26.1200   51.1330 C.2    40  ALA40       0.2287
     33  O         19.3570  -26.5720   50.9640 O.2    40  ALA40      -0.2864
     34  CB        17.9600  -24.3020   52.8740 C.3    40  ALA40       0.0319
     35  N         19.2670  -26.6220   47.5890 N.3    43  LYS43      -0.1245
     36  CA        20.6850  -26.3320   47.4340 C.3    43  LYS43       0.1561
     37  C         21.6170  -27.4380   47.8920 C.2    43  LYS43       0.2260
     38  O         22.5930  -27.7300   47.1960 O.2    43  LYS43      -0.2867
     39  CB        21.0450  -25.0190   48.1200 C.3    43  LYS43       0.0271
     40  CG        20.5590  -23.8170   47.2960 C.3    43  LYS43       0.0035
     41  CD        20.9740  -22.4940   47.8780 C.3    43  LYS43       0.0206
     42  CE        20.5140  -21.3510   46.9840 C.3    43  LYS43       0.1093
     43  NZ        19.0440  -21.3920   46.7410 N.3    43  LYS43      -0.1314
     44  N         15.3580  -27.2340   59.1350 N.3    78  ASP78      -0.1239
     45  CA        15.5300  -27.9290   57.8780 C.3    78  ASP78       0.1674
     46  C         16.9350  -28.5590   57.8840 C.2    78  ASP78       0.2266
     47  O         17.8120  -28.1480   58.6500 O.2    78  ASP78      -0.2867
     48  CB        15.3580  -26.9670   56.6740 C.3    78  ASP78       0.1410
     49  CG        16.4310  -25.8770   56.6080 C.2    78  ASP78       0.3668
     50  OD1       17.6220  -26.1630   56.3570 O.co2  78  ASP78      -0.2456
     51  OD2       16.0840  -24.7070   56.8100 O.co2  78  ASP78      -0.2456
     52  N         21.4180  -26.8090   53.2710 N.3    81  VAL81      -0.1231
     53  CA        22.8290  -26.4290   53.1760 C.3    81  VAL81       0.1692
     54  C         23.3960  -25.7270   54.4050 C.2    81  VAL81       0.2593
     55  O         24.5860  -25.8640   54.7000 O.2    81  VAL81      -0.2718
     56  CB        23.0460  -25.5340   51.9190 C.3    81  VAL81       0.0266
     57  CG1       22.2380  -24.2650   52.0610 C.3    81  VAL81       0.0020
     58  CG2       24.5410  -25.2290   51.7090 C.3    81  VAL81       0.0020
     59  N         22.5570  -24.9690   55.1200 N.am   82  GLY82      -0.1942
     60  CA        23.0250  -24.2550   56.2910 C.3    82  GLY82       0.2014
     61  C         23.8060  -23.0210   55.8800 C.2    82  GLY82       0.2638
     62  O         23.9210  -22.7170   54.6810 O.2    82  GLY82      -0.2714
     63  N         24.3350  -22.3160   56.8720 N.am   83  MET83      -0.1976
     64  CA        25.1040  -21.1060   56.6820 C.3    83  MET83       0.1605
     65  C         26.2830  -21.0730   57.6110 C.2    83  MET83       0.2287
     66  O         26.1660  -21.4190   58.7940 O.2    83  MET83      -0.2864
     67  CB        24.2450  -19.8460   56.9730 C.3    83  MET83       0.0413
     68  CG        23.0240  -19.6940   56.0610 C.3    83  MET83       0.0598
     69  SD        21.9730  -18.3230   56.6670 S.3    83  MET83      -0.1393
     70  CE        20.8520  -19.2690   57.7190 C.3    83  MET83       0.0692
     71  N         28.0370  -16.1080   56.4860 N.3    87  GLU87      -0.1245
     72  CA        26.7740  -16.0880   55.7450 C.3    87  GLU87       0.1567
     73  C         25.5810  -15.7030   56.6160 C.2    87  GLU87       0.2260
     74  O         24.6160  -15.1230   56.1100 O.2    87  GLU87      -0.2867
     75  CB        26.5300  -17.4370   55.0740 C.3    87  GLU87       0.0388
     76  CG        27.5890  -17.7170   54.0270 C.3    87  GLU87       0.1160
     77  CD        27.4890  -19.0990   53.4130 C.2    87  GLU87       0.3649
     78  OE1       27.0950  -20.0660   54.0950 O.co2  87  GLU87      -0.2457
     79  OE2       27.8290  -19.2170   52.2270 O.co2  87  GLU87      -0.2457
     80  N         23.6820  -12.8470   55.1370 N.3    91  ASN91      -0.1225
     81  CA        22.3360  -13.0940   54.6550 C.3    91  ASN91       0.1785
     82  C         21.2550  -12.4090   55.4640 C.2    91  ASN91       0.2597
     83  O         20.2900  -11.9160   54.8910 O.2    91  ASN91      -0.2718
     84  CB        22.0330  -14.5930   54.5870 C.3    91  ASN91       0.1169
     85  CG        22.9030  -15.3170   53.5850 C.2    91  ASN91       0.2627
     86  OD1       23.6990  -14.6940   52.8770 O.2    91  ASN91      -0.2716
     87  ND2       22.7840  -16.6370   53.5360 N.am   91  ASN91      -0.0877
     88  N         21.4040  -12.3840   56.7850 N.am   92  LEU92      -0.1980
     89  CA        20.3760  -11.7940   57.6530 C.3    92  LEU92       0.1596
     90  C         20.5450  -10.3100   57.9720 C.2    92  LEU92       0.2287
     91  O         19.5650   -9.5900   58.2040 O.2    92  LEU92      -0.2864
     92  CB        20.3160  -12.5960   58.9640 C.3    92  LEU92       0.0297
     93  CG        20.1060  -14.1020   58.7470 C.3    92  LEU92       0.0022
     94  CD1       19.9400  -14.8280   60.0860 C.3    92  LEU92       0.0001
     95  CD2       18.8690  -14.3010   57.8450 C.3    92  LEU92       0.0001
     96  N         22.5990  -10.6530   48.4140 N.3    97  LYS97      -0.1245
     97  CA        22.5450  -10.8870   46.9680 C.3    97  LYS97       0.1561
     98  C         22.2220   -9.6490   46.1160 C.2    97  LYS97       0.2260
     99  O         21.5840   -8.6900   46.5930 O.2    97  LYS97      -0.2867
    100  CB        21.5300  -11.9980   46.6810 C.3    97  LYS97       0.0271
    101  CG        21.7810  -13.2520   47.5130 C.3    97  LYS97       0.0035
    102  CD        20.6940  -14.3070   47.3350 C.3    97  LYS97       0.0206
    103  CE        21.0060  -15.5450   48.1760 C.3    97  LYS97       0.1093
    104  NZ        19.8950  -16.5460   48.1880 N.3    97  LYS97      -0.1314
    105  N         12.8960  -14.3970   47.9960 N.3   125  GLY125     -0.1225
    106  CA        13.2350  -15.1330   49.2020 C.3   125  GLY125      0.1811
    107  C         13.7070  -14.3010   50.3800 C.2   125  GLY125      0.2280
    108  O         14.6990  -14.6600   51.0440 O.2   125  GLY125     -0.2866
    109  N         11.9410  -14.0760   55.4200 N.3   128  PHE128     -0.1241
    110  CA        12.3780  -14.2670   56.8030 C.3   128  PHE128      0.1605
    111  C         11.9380  -13.1380   57.7450 C.2   128  PHE128      0.2264
    112  O         11.4490  -13.3650   58.8500 O.2   128  PHE128     -0.2867
    113  CB        13.9140  -14.3950   56.8220 C.3   128  PHE128      0.0534
    114  CG        14.5060  -14.3500   58.1940 C.ar  128  PHE128     -0.0203
    115  CD1       14.3630  -15.4230   59.0620 C.ar  128  PHE128     -0.0042
    116  CD2       15.1870  -13.2180   58.6290 C.ar  128  PHE128     -0.0042
    117  CE1       14.8900  -15.3710   60.3510 C.ar  128  PHE128     -0.0003
    118  CE2       15.7100  -13.1560   59.9090 C.ar  128  PHE128     -0.0003
    119  CZ        15.5580  -14.2460   60.7790 C.ar  128  PHE128     -0.0000
    120  N         18.3470  -17.8140   65.0110 N.3   140  VAL140     -0.1245
    121  CA        18.6670  -18.6910   63.8950 C.3   140  VAL140      0.1561
    122  C         19.9110  -19.4930   64.2620 C.2   140  VAL140      0.2260
    123  O         20.9730  -18.9100   64.4970 O.2   140  VAL140     -0.2867
    124  CB        18.9350  -17.8600   62.5940 C.3   140  VAL140      0.0252
    125  CG1       19.3310  -18.7870   61.4320 C.3   140  VAL140      0.0019
    126  CG2       17.6540  -17.0520   62.2180 C.3   140  VAL140      0.0019
    127  N         19.4690  -25.7020   59.4060 N.3   174  THR174     -0.1218
    128  CA        19.1260  -24.4760   60.0890 C.3   174  THR174      0.1862
    129  C         17.8330  -24.6000   60.8640 C.2   174  THR174      0.2287
    130  O         16.8780  -25.2390   60.4040 O.2   174  THR174     -0.2866
    131  CB        18.9280  -23.3370   59.0390 C.3   174  THR174      0.1770
    132  OG1       20.1550  -23.1100   58.3430 O.3   174  THR174     -0.2211
    133  CG2       18.4480  -22.0340   59.7030 C.3   174  THR174      0.0375
    134  N         15.0190  -22.1080   62.7660 N.3   176  ILE176     -0.1245
    135  CA        14.5300  -20.7540   62.9800 C.3   176  ILE176      0.1561
    136  C         13.6920  -20.9130   64.2290 C.2   176  ILE176      0.2260
    137  O         12.7460  -21.7180   64.2400 O.2   176  ILE176     -0.2867
    138  CB        13.5900  -20.2920   61.8540 C.3   176  ILE176      0.0252
    139  CG1       14.2820  -20.4480   60.4910 C.3   176  ILE176      0.0019
    140  CG2       13.1390  -18.8290   62.1370 C.3   176  ILE176      0.0019
    141  CD1       15.5480  -19.5450   60.3240 C.3   176  ILE176      0.0001
@<TRIPOS>BOND
     1    98    99    2
     2    98    97    1
     3   100    97    1
     4   100   101    1
     5    43    42    1
     6    97    96    1
     7    42    41    1
     8    38    37    2
     9    40    41    1
    10    40    39    1
    11   102   101    1
    12   102   103    1
    13    29    27   ar
    14    36    35    1
    15    36    37    1
    16    36    39    1
    17    28    27   ar
    18    27    26    1
    19   105   106    1
    20   103   104    1
    21    25    24    2
    22    26    23    1
    23    23    24    1
    24    23    22    1
    25   106   107    1
    26    24    30   am
    27   107   108    2
    28    30    31    1
    29    33    32    2
    30    32    31    1
    31    31    34    1
    32    58    56    1
    33    56    57    1
    34    56    53    1
    35    79    77   ar
    36    15    14    2
    37    12    11    2
    38     9    10    1
    39    20    19    2
    40    10    11    1
    41    10    13    1
    42    86    85    2
    43    19    18    1
    44    11    17   am
    45    53    52    1
    46    53    54    1
    47    77    76    1
    48    77    78   ar
    49    87    85   am
    50    14    13    1
    51    14    16   am
    52    85    84    1
    53    17    18    1
    54    76    75    1
    55    18    21    1
    56    54    55    2
    57    54    59   am
    58    84    81    1
    59    81    80    1
    60    81    82    1
    61    62    61    2
    62    83    82    2
    63    75    72    1
    64    59    60    1
    65   109   110    1
    66    82    88   am
    67     4     3    2
    68     1     2    1
    69    72    71    1
    70    72    73    1
    71     3     2    1
    72    61    60    1
    73    61    63   am
    74    68    69    1
    75    68    67    1
    76    74    73    2
    77    50    49   ar
    78     2     5    1
    79    49    48    1
    80    49    51   ar
    81    69    70    1
    82    48    45    1
    83    64    63    1
    84    64    67    1
    85    64    65    1
    86    88    89    1
    87   110   113    1
    88   110   111    1
    89   113   114    1
    90    65    66    2
    91    89    90    1
    92    89    92    1
    93   111   112    2
    94    95    93    1
    95     5     6    1
    96    45    46    1
    97    45    44    1
    98    46    47    2
    99    90    91    2
   100   114   116   ar
   101   114   115   ar
   102   132   131    1
   103     8     6    1
   104   116   118   ar
   105     6     7    1
   106    93    92    1
   107    93    94    1
   108   131   133    1
   109   131   128    1
   110   115   117   ar
   111   127   128    1
   112   118   119   ar
   113   128   129    1
   114   141   139    1
   115   117   119   ar
   116   130   129    2
   117   139   138    1
   118   125   124    1
   119   138   140    1
   120   138   135    1
   121   126   124    1
   122   124   121    1
   123   134   135    1
   124   135   136    1
   125   121   122    1
   126   121   120    1
   127   136   137    2
   128   122   123    2
