@<TRIPOS>MOLECULE
tmp/1qyeA00.pdb
 144 133 0 0 0
SMALL
GASTEIGER

@<TRIPOS>ATOM
      1  N         13.9480   -2.5070   54.5180 N.3    14  MET14      -0.1245
      2  CA        13.3250   -3.6910   53.9310 C.3    14  MET14       0.1570
      3  C         12.4300   -4.3780   54.9720 C.2    14  MET14       0.2261
      4  O         11.3070   -4.7890   54.6620 O.2    14  MET14      -0.2867
      5  CB        14.3930   -4.6650   53.4210 C.3    14  MET14       0.0387
      6  CG        13.8390   -5.9150   52.7350 C.3    14  MET14       0.0595
      7  SD        15.0960   -6.9310   51.8800 S.3    14  MET14      -0.1393
      8  CE        15.9310   -7.6700   53.2860 C.3    14  MET14       0.0692
      9  N          9.0570  -19.0980   55.9300 N.3    33  LEU33      -0.1245
     10  CA        10.0970  -19.8480   56.6210 C.3    33  LEU33       0.1561
     11  C         10.2220  -21.2360   55.9780 C.2    33  LEU33       0.2260
     12  O         11.3280  -21.7700   55.8330 O.2    33  LEU33      -0.2867
     13  CB         9.7720  -19.9810   58.1130 C.3    33  LEU33       0.0270
     14  CG         9.6160  -18.6910   58.9170 C.3    33  LEU33       0.0019
     15  CD1        9.4680  -19.0480   60.3810 C.3    33  LEU33       0.0001
     16  CD2       10.8220  -17.7630   58.7100 C.3    33  LEU33       0.0001
     17  N         11.9300  -20.8920   52.6770 N.3    36  ASN36      -0.1225
     18  CA        13.3510  -20.6950   52.9070 C.3    36  ASN36       0.1785
     19  C         14.0350  -22.0390   53.1470 C.2    36  ASN36       0.2597
     20  O         15.1130  -22.3080   52.6060 O.2    36  ASN36      -0.2718
     21  CB        13.5670  -19.7940   54.1170 C.3    36  ASN36       0.1169
     22  CG        13.4410  -18.3350   53.7770 C.2    36  ASN36       0.2627
     23  OD1       13.3230  -17.9710   52.6100 O.2    36  ASN36      -0.2716
     24  ND2       13.4900  -17.4850   54.7920 N.am   36  ASN36      -0.0877
     25  N         13.4030  -22.8680   53.9750 N.am   37  ALA37      -0.1979
     26  CA        13.9190  -24.1940   54.2950 C.3    37  ALA37       0.1597
     27  C         14.0200  -25.0030   53.0000 C.2    37  ALA37       0.2287
     28  O         15.0010  -25.7140   52.7640 O.2    37  ALA37      -0.2864
     29  CB        12.9960  -24.8890   55.2670 C.3    37  ALA37       0.0319
     30  N         17.0330  -23.9820   51.0360 N.3    40  ALA40      -0.1245
     31  CA        18.2250  -24.5260   51.6640 C.3    40  ALA40       0.1562
     32  C         18.3590  -26.0080   51.3520 C.2    40  ALA40       0.2260
     33  O         19.4740  -26.5200   51.2020 O.2    40  ALA40      -0.2867
     34  CB        18.1620  -24.3040   53.1690 C.3    40  ALA40       0.0290
     35  N         19.5570  -26.4220   47.7250 N.3    43  LYS43      -0.1245
     36  CA        20.9870  -26.1420   47.6160 C.3    43  LYS43       0.1561
     37  C         21.8350  -27.3270   48.0280 C.2    43  LYS43       0.2260
     38  O         22.7210  -27.7260   47.2930 O.2    43  LYS43      -0.2867
     39  CB        21.3850  -24.9260   48.4510 C.3    43  LYS43       0.0271
     40  CG        20.9810  -23.6060   47.8190 C.3    43  LYS43       0.0035
     41  CD        21.5040  -22.4120   48.6140 C.3    43  LYS43       0.0206
     42  CE        21.0720  -21.0950   47.9690 C.3    43  LYS43       0.1093
     43  NZ        19.5800  -21.0100   47.8230 N.3    43  LYS43      -0.1314
     44  N         15.4060  -27.2660   59.2710 N.3    78  ASP78      -0.1239
     45  CA        15.6080  -27.9240   57.9930 C.3    78  ASP78       0.1674
     46  C         17.0050  -28.5440   58.0000 C.2    78  ASP78       0.2266
     47  O         17.8870  -28.0890   58.7340 O.2    78  ASP78      -0.2867
     48  CB        15.4730  -26.9150   56.8280 C.3    78  ASP78       0.1410
     49  CG        16.5820  -25.8710   56.8050 C.2    78  ASP78       0.3668
     50  OD1       17.7660  -26.2420   56.6420 O.co2  78  ASP78      -0.2456
     51  OD2       16.2700  -24.6660   56.9390 O.co2  78  ASP78      -0.2456
     52  N         21.3680  -26.7620   53.4180 N.3    81  VAL81      -0.1231
     53  CA        22.7870  -26.4330   53.3280 C.3    81  VAL81       0.1692
     54  C         23.3710  -25.7180   54.5440 C.2    81  VAL81       0.2593
     55  O         24.5730  -25.8330   54.8170 O.2    81  VAL81      -0.2718
     56  CB        23.0650  -25.5780   52.0720 C.3    81  VAL81       0.0266
     57  CG1       22.3700  -24.2280   52.1990 C.3    81  VAL81       0.0020
     58  CG2       24.5820  -25.4130   51.8670 C.3    81  VAL81       0.0020
     59  N         22.5330  -24.9790   55.2690 N.am   82  GLY82      -0.1942
     60  CA        23.0140  -24.2710   56.4400 C.3    82  GLY82       0.2014
     61  C         23.7500  -23.0040   56.0610 C.2    82  GLY82       0.2638
     62  O         23.8480  -22.6770   54.8750 O.2    82  GLY82      -0.2714
     63  N         24.2440  -22.2910   57.0760 N.am   83  MET83      -0.1976
     64  CA        24.9790  -21.0420   56.9070 C.3    83  MET83       0.1605
     65  C         26.1920  -20.9900   57.8270 C.2    83  MET83       0.2287
     66  O         26.1110  -21.3450   58.9930 O.2    83  MET83      -0.2864
     67  CB        24.0990  -19.8200   57.2490 C.3    83  MET83       0.0413
     68  CG        23.0160  -19.4640   56.2280 C.3    83  MET83       0.0598
     69  SD        21.9890  -18.0440   56.7630 S.3    83  MET83      -0.1393
     70  CE        20.7050  -18.9220   57.7030 C.3    83  MET83       0.0692
     71  N         24.0190  -12.6310   55.1620 N.3    91  ASN91      -0.1225
     72  CA        22.7090  -12.9240   54.5850 C.3    91  ASN91       0.1785
     73  C         21.5330  -12.3860   55.3830 C.2    91  ASN91       0.2597
     74  O         20.5230  -12.0190   54.8100 O.2    91  ASN91      -0.2718
     75  CB        22.5470  -14.4300   54.3890 C.3    91  ASN91       0.1169
     76  CG        23.4960  -14.9820   53.3480 C.2    91  ASN91       0.2627
     77  OD1       24.3510  -14.2690   52.8320 O.2    91  ASN91      -0.2716
     78  ND2       23.3500  -16.2560   53.0330 N.am   91  ASN91      -0.0877
     79  N         21.6670  -12.3440   56.7050 N.am   92  LEU92      -0.1980
     80  CA        20.6020  -11.8480   57.5590 C.3    92  LEU92       0.1596
     81  C         20.7600  -10.3730   57.9050 C.2    92  LEU92       0.2287
     82  O         19.7690   -9.6630   58.1280 O.2    92  LEU92      -0.2864
     83  CB        20.5520  -12.6720   58.8500 C.3    92  LEU92       0.0297
     84  CG        20.2280  -14.1560   58.6600 C.3    92  LEU92       0.0022
     85  CD1       20.2080  -14.8700   60.0050 C.3    92  LEU92       0.0001
     86  CD2       18.8800  -14.3050   57.9550 C.3    92  LEU92       0.0001
     87  N         23.3560  -10.2780   49.1920 N.3    97  LYS97      -0.1245
     88  CA        22.8830  -11.3470   48.3020 C.3    97  LYS97       0.1561
     89  C         22.3660  -10.7520   46.9850 C.2    97  LYS97       0.2260
     90  O         21.3650  -10.0400   46.9580 O.2    97  LYS97      -0.2867
     91  CB        21.7770  -12.1510   48.9920 C.3    97  LYS97       0.0271
     92  CG        21.1520  -13.2460   48.1380 C.3    97  LYS97       0.0035
     93  CD        19.8910  -13.7670   48.8160 C.3    97  LYS97       0.0206
     94  CE        19.0850  -14.7060   47.9370 C.3    97  LYS97       0.1093
     95  NZ        17.7450  -14.9540   48.5570 N.3    97  LYS97      -0.1314
     96  N         12.8390  -14.4830   47.8930 N.3   125  GLY125     -0.1210
     97  CA        13.1810  -15.2200   49.0980 C.3   125  GLY125      0.1956
     98  C         13.6140  -14.4270   50.3230 C.2   125  GLY125      0.2611
     99  O         14.4230  -14.9230   51.1130 O.2   125  GLY125     -0.2717
    100  N         13.0790  -13.2190   50.4900 N.am  126  VAL126     -0.1979
    101  CA        13.4190  -12.3510   51.6240 C.3   126  VAL126      0.1595
    102  C         12.3330  -12.3520   52.6910 C.2   126  VAL126      0.2287
    103  O         12.2200  -11.4020   53.4780 O.2   126  VAL126     -0.2864
    104  CB        13.6140  -10.8970   51.1600 C.3   126  VAL126      0.0276
    105  CG1       14.7730  -10.8090   50.1920 C.3   126  VAL126      0.0022
    106  CG2       12.3490  -10.4040   50.4820 C.3   126  VAL126      0.0022
    107  N         12.1100  -14.0350   55.3670 N.3   128  PHE128     -0.1227
    108  CA        12.5890  -14.2820   56.7260 C.3   128  PHE128      0.1736
    109  C         12.1530  -13.2100   57.7070 C.2   128  PHE128      0.2595
    110  O         11.7290  -13.5200   58.8170 O.2   128  PHE128     -0.2718
    111  CB        14.1320  -14.3860   56.7360 C.3   128  PHE128      0.0547
    112  CG        14.7340  -14.3410   58.1140 C.ar  128  PHE128     -0.0202
    113  CD1       14.7850  -15.4800   58.9060 C.ar  128  PHE128     -0.0042
    114  CD2       15.2030  -13.1410   58.6410 C.ar  128  PHE128     -0.0042
    115  CE1       15.2870  -15.4330   60.2020 C.ar  128  PHE128     -0.0003
    116  CE2       15.7120  -13.0830   59.9470 C.ar  128  PHE128     -0.0003
    117  CZ        15.7500  -14.2390   60.7250 C.ar  128  PHE128     -0.0000
    118  N         12.2290  -11.9460   57.3060 N.am  129  TYR129     -0.1976
    119  CA        11.8790  -10.8600   58.2180 C.3   129  TYR129      0.1639
    120  C         10.3910  -10.7940   58.5870 C.2   129  TYR129      0.2290
    121  O         10.0320  -10.1100   59.5590 O.2   129  TYR129     -0.2864
    122  CB        12.3600   -9.5150   57.6480 C.3   129  TYR129      0.0560
    123  CG        13.8500   -9.5240   57.2900 C.ar  129  TYR129     -0.0198
    124  CD1       14.8320   -9.3420   58.2680 C.ar  129  TYR129     -0.0009
    125  CD2       14.2670   -9.8090   55.9930 C.ar  129  TYR129     -0.0009
    126  CE1       16.2000   -9.4550   57.9560 C.ar  129  TYR129      0.0417
    127  CE2       15.6230   -9.9240   55.6700 C.ar  129  TYR129      0.0417
    128  CZ        16.5790   -9.7480   56.6580 C.ar  129  TYR129      0.1957
    129  OH        17.9040   -9.8740   56.3370 O.3   129  TYR129     -0.2866
    130  N         19.4120  -25.7790   59.4990 N.3   174  THR174     -0.1218
    131  CA        19.0730  -24.5710   60.2190 C.3   174  THR174      0.1862
    132  C         17.7930  -24.6590   61.0010 C.2   174  THR174      0.2287
    133  O         16.8280  -25.3000   60.5730 O.2   174  THR174     -0.2866
    134  CB        18.9360  -23.3990   59.2330 C.3   174  THR174      0.1770
    135  OG1       20.1720  -23.2340   58.5300 O.3   174  THR174     -0.2211
    136  CG2       18.5690  -22.1030   59.9630 C.3   174  THR174      0.0375
    137  N         15.0230  -22.1180   62.7960 N.3   176  ILE176     -0.1245
    138  CA        14.5460  -20.7620   63.0070 C.3   176  ILE176      0.1561
    139  C         13.6730  -20.9090   64.2470 C.2   176  ILE176      0.2260
    140  O         12.6940  -21.6750   64.2450 O.2   176  ILE176     -0.2867
    141  CB        13.6430  -20.2410   61.8520 C.3   176  ILE176      0.0252
    142  CG1       14.3220  -20.4300   60.4890 C.3   176  ILE176      0.0019
    143  CG2       13.3300  -18.7650   62.0950 C.3   176  ILE176      0.0019
    144  CD1       15.6410  -19.6970   60.3320 C.3   176  ILE176      0.0001
@<TRIPOS>BOND
     1    90    89    2
     2    89    88    1
     3    38    37    2
     4    36    35    1
     5    36    37    1
     6    36    39    1
     7    40    39    1
     8    40    41    1
     9    43    42    1
    10    96    97    1
    11    94    95    1
    12    94    93    1
    13    42    41    1
    14    92    93    1
    15    92    91    1
    16    88    91    1
    17    88    87    1
    18    97    98    1
    19   105   104    1
    20    98   100   am
    21    98    99    2
    22   106   104    1
    23   100   101    1
    24    30    31    1
    25   104   101    1
    26    33    32    2
    27    32    31    1
    28   101   102    1
    29    31    34    1
    30    58    56    1
    31     7     6    1
    32     7     8    1
    33    56    57    1
    34    56    53    1
    35    20    19    2
    36    23    22    2
    37    17    18    1
    38   102   103    2
    39     6     5    1
    40    28    27    2
    41    77    76    2
    42    18    19    1
    43    18    21    1
    44    27    26    1
    45    78    76   am
    46    19    25   am
    47    53    52    1
    48    53    54    1
    49    76    75    1
    50     5     2    1
    51    22    21    1
    52    22    24   am
    53     2     1    1
    54     2     3    1
    55    25    26    1
    56    26    29    1
    57    75    72    1
    58    54    55    2
    59    54    59   am
    60    72    71    1
    61    72    73    1
    62     4     3    2
    63    74    73    2
    64    62    61    2
    65    59    60    1
    66   107   108    1
    67    73    79   am
    68   127   125   ar
    69   127   128   ar
    70    12    11    2
    71     9    10    1
    72    11    10    1
    73   125   123   ar
    74    61    60    1
    75    61    63   am
    76    68    69    1
    77    68    67    1
    78   129   128    1
    79    10    13    1
    80    50    49   ar
    81   128   126   ar
    82    79    80    1
    83   108   111    1
    84   108   109    1
    85   111   112    1
    86    69    70    1
    87    49    48    1
    88    49    51   ar
    89    48    45    1
    90    64    63    1
    91    64    67    1
    92    64    65    1
    93   123   122    1
    94   123   124   ar
    95   118   109   am
    96   118   119    1
    97    80    81    1
    98    80    83    1
    99   122   119    1
   100   109   110    2
   101    65    66    2
   102    81    82    2
   103    86    84    1
   104   126   124   ar
   105    45    46    1
   106    45    44    1
   107    46    47    2
   108    13    14    1
   109   112   114   ar
   110   112   113   ar
   111   119   120    1
   112   135   134    1
   113   120   121    2
   114   114   116   ar
   115    84    83    1
   116    84    85    1
   117    16    14    1
   118   113   115   ar
   119    14    15    1
   120   134   136    1
   121   134   131    1
   122   130   131    1
   123   116   117   ar
   124   115   117   ar
   125   131   132    1
   126   144   142    1
   127   142   141    1
   128   133   132    2
   129   141   143    1
   130   141   138    1
   131   137   138    1
   132   138   139    1
   133   140   139    2
