@<TRIPOS>MOLECULE
tmp/1qygB00.pdb
 90 84 0 0 0
SMALL
GASTEIGER

@<TRIPOS>ATOM
      1  N         35.2100   -4.5220   18.9200 N.3    31  ASP31      -0.1239
      2  CA        34.0100   -5.1630   19.5290 C.3    31  ASP31       0.1674
      3  C         33.1160   -4.1140   20.2130 C.2    31  ASP31       0.2266
      4  O         31.9700   -4.4040   20.5690 O.2    31  ASP31      -0.2867
      5  CB        34.4000   -6.1190   20.6550 C.3    31  ASP31       0.1410
      6  CG        35.0710   -7.4400   20.1400 C.2    31  ASP31       0.3668
      7  OD1       34.9420   -7.7480   18.9680 O.co2  31  ASP31      -0.2456
      8  OD2       35.7500   -8.1240   20.9600 O.co2  31  ASP31      -0.2456
      9  N         30.8290   -0.7150   21.2520 N.3    33  TRP33      -0.1241
     10  CA        29.7760    0.1490   20.6220 C.3    33  TRP33       0.1605
     11  C         30.3360    1.5060   21.1480 C.2    33  TRP33       0.2264
     12  O         30.8260    1.5700   22.2840 O.2    33  TRP33      -0.2867
     13  CB        28.3920   -0.0730   21.2090 C.3    33  TRP33       0.0550
     14  CG        27.7310   -1.3180   20.6770 C.ar   33  TRP33       0.0003
     15  CD1       28.3550   -2.4440   20.1760 C.ar   33  TRP33       0.0946
     16  CD2       26.3610   -1.5700   20.7090 C.ar   33  TRP33       0.0152
     17  NE1       27.3700   -3.4280   19.9050 N.ar   33  TRP33      -0.2442
     18  CE2       26.1570   -2.9130   20.2160 C.ar   33  TRP33       0.0810
     19  CE3       25.2700   -0.8140   21.1000 C.ar   33  TRP33       0.0012
     20  CZ2       24.8600   -3.5260   20.1510 C.ar   33  TRP33       0.0191
     21  CZ3       23.9650   -1.4100   21.0410 C.ar   33  TRP33       0.0001
     22  CH2       23.8070   -2.7660   20.5670 C.ar   33  TRP33       0.0015
     23  N         25.4400    7.1870   18.7850 N.3    50  GLU50      -0.1245
     24  CA        26.1480    5.9750   18.9940 C.3    50  GLU50       0.1567
     25  C         26.2720    5.2080   17.6220 C.2    50  GLU50       0.2260
     26  O         25.3550    5.2710   16.7740 O.2    50  GLU50      -0.2867
     27  CB        25.3620    5.0250   19.9540 C.3    50  GLU50       0.0388
     28  CG        26.0290    3.7020   20.0900 C.3    50  GLU50       0.1160
     29  CD        25.4510    2.8880   21.2410 C.2    50  GLU50       0.3649
     30  OE1       24.2710    2.4770   20.9720 O.co2  50  GLU50      -0.2457
     31  OE2       26.1310    2.6560   22.3050 O.co2  50  GLU50      -0.2457
     32  N         27.1810    1.2050   16.4330 N.3    52  ARG52      -0.1231
     33  CA        27.4510   -0.1280   16.9270 C.3    52  ARG52       0.1694
     34  C         28.5970   -0.7810   16.1940 C.2    52  ARG52       0.2592
     35  O         29.1590   -0.1610   15.2300 O.2    52  ARG52      -0.2718
     36  CB        26.1690   -0.9170   16.7320 C.3    52  ARG52       0.0321
     37  CG        25.0210   -0.3000   17.5260 C.3    52  ARG52       0.0489
     38  CD        23.6820   -1.1230   17.3220 C.3    52  ARG52       0.2205
     39  NE        22.6460   -0.3000   17.9180 N.pl3  52  ARG52      -0.0865
     40  CZ        21.4230   -0.7250   18.2510 C.cat  52  ARG52       0.5346
     41  NH1       21.1190   -2.0160   18.0640 N.pl3  52  ARG52       0.1354
     42  NH2       20.4970    0.1690   18.6880 N.pl3  52  ARG52       0.1354
     43  N         28.9590   -1.9930   16.6270 N.am   53  ASN53      -0.1974
     44  CA        30.0670   -2.6850   16.0280 C.3    53  ASN53       0.1688
     45  C         29.6220   -3.3930   14.7350 C.2    53  ASN53       0.2292
     46  O         28.4260   -3.4690   14.3870 O.2    53  ASN53      -0.2864
     47  CB        30.7200   -3.6600   17.0110 C.3    53  ASN53       0.1181
     48  CG        29.7300   -4.7510   17.5030 C.2    53  ASN53       0.2629
     49  OD1       28.7290   -4.9680   16.8500 O.2    53  ASN53      -0.2716
     50  ND2       30.0400   -5.4050   18.6200 N.am   53  ASN53      -0.0877
     51  N         26.8950   -5.8950   14.7210 N.3    56  ASN56      -0.1240
     52  CA        25.5450   -5.3250   14.8550 C.3    56  ASN56       0.1653
     53  C         25.2360   -4.3130   13.7070 C.2    56  ASN56       0.2266
     54  O         24.4640   -3.3480   13.8890 O.2    56  ASN56      -0.2867
     55  CB        25.3550   -4.6910   16.2570 C.3    56  ASN56       0.1155
     56  CG        25.1820   -5.7500   17.3580 C.2    56  ASN56       0.2627
     57  OD1       24.0730   -6.1100   17.6170 O.2    56  ASN56      -0.2716
     58  ND2       26.2840   -6.2070   18.0020 N.am   56  ASN56      -0.0877
     59  N         31.3760    1.3620   25.1600 N.3   101  VAL101     -0.1245
     60  CA        30.7450    0.2950   25.9360 C.3   101  VAL101      0.1561
     61  C         31.5730   -0.8550   25.2530 C.2   101  VAL101      0.2260
     62  O         31.2310   -1.3460   24.1550 O.2   101  VAL101     -0.2867
     63  CB        29.3070    0.0960   25.5800 C.3   101  VAL101      0.0252
     64  CG1       28.7590   -1.0580   26.4290 C.3   101  VAL101      0.0019
     65  CG2       28.4800    1.4240   25.8180 C.3   101  VAL101      0.0019
     66  N         31.8910   -3.9780   26.1160 N.3   103  GLN103     -0.1231
     67  CA        31.3280   -5.3540   26.0730 C.3   103  GLN103      0.1698
     68  C         29.9670   -5.2260   26.6710 C.2   103  GLN103      0.2592
     69  O         29.6310   -4.2090   27.3420 O.2   103  GLN103     -0.2718
     70  CB        32.1790   -6.3160   26.8960 C.3   103  GLN103      0.0381
     71  CG        31.9720   -7.7240   26.4080 C.3   103  GLN103      0.0905
     72  CD        32.3320   -7.9360   24.8880 C.2   103  GLN103      0.2608
     73  OE1       33.4990   -7.7650   24.4350 O.2   103  GLN103     -0.2717
     74  NE2       31.3700   -8.2830   24.1480 N.am  103  GLN103     -0.0878
     75  N         29.1500   -6.2190   26.4170 N.am  104  LEU104     -0.1966
     76  CA        27.7850   -6.1190   26.8430 C.3   104  LEU104      0.1728
     77  C         27.6340   -5.8900   28.3640 C.2   104  LEU104      0.2616
     78  O         28.3150   -6.5000   29.1500 O.2   104  LEU104     -0.2715
     79  CB        26.9640   -7.3560   26.4530 C.3   104  LEU104      0.0311
     80  CG        25.5080   -7.2300   26.9880 C.3   104  LEU104      0.0022
     81  CD1       24.6320   -6.4630   26.0740 C.3   104  LEU104      0.0001
     82  CD2       24.9470   -8.6940   27.2080 C.3   104  LEU104      0.0001
     83  N         26.8070   -4.8770   28.7250 N.am  105  GLY105     -0.1955
     84  CA        26.4960   -4.5660   30.1510 C.3   105  GLY105      0.1869
     85  C         27.5360   -3.7560   30.9440 C.2   105  GLY105      0.2309
     86  O         27.3100   -3.5630   32.1130 O.2   105  GLY105     -0.2863
     87  N         28.4020   -0.5890   30.4470 N.3   107  GLY107     -0.1225
     88  CA        28.2060    0.8710   30.5870 C.3   107  GLY107      0.1811
     89  C         29.3090    1.6680   29.8300 C.2   107  GLY107      0.2280
     90  O         30.1290    1.1300   29.0460 O.2   107  GLY107     -0.2866
@<TRIPOS>BOND
     1    53    54    2
     2    53    52    1
     3    46    45    2
     4    51    52    1
     5    45    44    1
     6    52    55    1
     7    35    34    2
     8    44    43    1
     9    44    47    1
    10    34    43   am
    11    34    33    1
    12    55    56    1
    13    32    33    1
    14    36    33    1
    15    36    37    1
    16    26    25    2
    17    49    48    2
    18    47    48    1
    19    38    37    1
    20    38    39    1
    21    56    57    2
    22    56    58   am
    23    48    50   am
    24    25    24    1
    25    39    40    2
    26    41    40    1
    27    40    42    1
    28    23    24    1
    29     1     2    1
    30     7     6   ar
    31    24    27    1
    32     2     3    1
    33     2     5    1
    34    17    15   ar
    35    17    18   ar
    36    27    28    1
    37    28    29    1
    38     6     5    1
    39     6     8   ar
    40    20    18   ar
    41    20    22   ar
    42    15    14   ar
    43     3     4    2
    44    18    16   ar
    45    22    21   ar
    46    10    11    1
    47    10    13    1
    48    10     9    1
    49    14    16   ar
    50    14    13    1
    51    16    19   ar
    52    30    29   ar
    53    21    19   ar
    54    11    12    2
    55    29    31   ar
    56    74    72   am
    57    62    61    2
    58    73    72    2
    59    72    71    1
    60    59    60    1
    61    61    60    1
    62    63    65    1
    63    63    60    1
    64    63    64    1
    65    67    66    1
    66    67    68    1
    67    67    70    1
    68    81    80    1
    69    71    70    1
    70    75    68   am
    71    75    76    1
    72    79    76    1
    73    79    80    1
    74    68    69    2
    75    76    77    1
    76    80    82    1
    77    77    83   am
    78    77    78    2
    79    83    84    1
    80    90    89    2
    81    89    88    1
    82    84    85    1
    83    87    88    1
    84    85    86    2
