@<TRIPOS>MOLECULE
tmp/1qywA01.pdb
 141 132 0 0 0
SMALL
GASTEIGER

@<TRIPOS>ATOM
      1  N         18.3340   -4.0710    5.6760 N.3     8  THR8       -0.1203
      2  CA        17.8640   -5.0830    4.7290 C.3     8  THR8        0.1994
      3  C         18.1620   -4.7430    3.2730 C.2     8  THR8        0.2618
      4  O         18.3520   -3.5640    2.9190 O.2     8  THR8       -0.2717
      5  CB        16.3560   -5.3450    4.8540 C.3     8  THR8        0.1784
      6  OG1       15.5850   -4.1410    4.5720 O.3     8  THR8       -0.2211
      7  CG2       15.9660   -5.7070    6.2910 C.3     8  THR8        0.0376
      8  N         18.2790   -5.7590    2.4090 N.am    9  GLY9       -0.1956
      9  CA        18.5080   -5.5170    0.9830 C.3     9  GLY9        0.1869
     10  C         19.8650   -4.8960    0.6550 C.2     9  GLY9        0.2309
     11  O         19.9310   -3.9050   -0.0720 O.2     9  GLY9       -0.2863
     12  N         22.3880   -6.4140   -1.2150 N.3    11  SER11      -0.1202
     13  CA        23.1250   -7.0060   -2.3340 C.3    11  SER11       0.2020
     14  C         23.5040   -6.0000   -3.3950 C.2    11  SER11       0.2619
     15  O         24.4860   -6.2080   -4.1210 O.2    11  SER11      -0.2717
     16  CB        22.2710   -8.1410   -2.9460 C.3    11  SER11       0.2103
     17  OG        21.2380   -7.5590   -3.7100 O.3    11  SER11      -0.2182
     18  N         22.8390   -4.8450   -3.4420 N.am   12  SER12      -0.1937
     19  CA        23.1660   -3.8340   -4.4370 C.3    12  SER12       0.2055
     20  C         22.5860   -2.4820   -4.0120 C.2    12  SER12       0.2644
     21  O         21.9070   -2.3880   -2.9830 O.2    12  SER12      -0.2714
     22  CB        22.5240   -4.1810   -5.7850 C.3    12  SER12       0.2130
     23  OG        21.1110   -4.2530   -5.6730 O.3    12  SER12      -0.2179
     24  N         22.8330   -1.4780   -4.8480 N.am   13  GLY13      -0.1939
     25  CA        22.2230   -0.1860   -4.6340 C.3    13  GLY13       0.2014
     26  C         22.4090    0.4710   -3.2860 C.2    13  GLY13       0.2638
     27  O         23.4880    0.4510   -2.7000 O.2    13  GLY13      -0.2714
     28  N         21.3530    1.1910   -2.8670 N.am   14  ILE14      -0.1977
     29  CA        21.4250    1.9710   -1.6650 C.3    14  ILE14       0.1596
     30  C         21.8650    1.1710   -0.4590 C.2    14  ILE14       0.2287
     31  O         22.7230    1.6200    0.2850 O.2    14  ILE14      -0.2864
     32  CB        20.0710    2.6860   -1.3870 C.3    14  ILE14       0.0276
     33  CG1       19.8530    3.6630   -2.5600 C.3    14  ILE14       0.0022
     34  CG2       20.0960    3.3860   -0.0360 C.3    14  ILE14       0.0022
     35  CD1       18.3900    4.1130   -2.6540 C.3    14  ILE14       0.0001
     36  N         22.1420   -7.4190    5.6020 N.3    35  THR35      -0.1218
     37  CA        21.3340   -8.5910    5.3190 C.3    35  THR35       0.1862
     38  C         20.9310   -8.6390    3.8690 C.2    35  THR35       0.2287
     39  O         20.8470   -7.6530    3.1450 O.2    35  THR35      -0.2866
     40  CB        20.1490   -8.8000    6.2670 C.3    35  THR35       0.1770
     41  OG1       19.0550   -7.9880    5.8680 O.3    35  THR35      -0.2211
     42  CG2       20.5500   -8.4780    7.7020 C.3    35  THR35       0.0375
     43  N         18.7590  -11.2490    0.8280 N.3    37  ARG37      -0.1231
     44  CA        17.8310  -12.3570    0.6120 C.3    37  ARG37       0.1694
     45  C         18.5520  -13.6560    0.3230 C.2    37  ARG37       0.2592
     46  O         18.2210  -14.7250    0.8220 O.2    37  ARG37      -0.2718
     47  CB        16.9120  -12.0250   -0.5630 C.3    37  ARG37       0.0321
     48  CG        15.6640  -12.8970   -0.5850 C.3    37  ARG37       0.0489
     49  CD        15.8790  -14.3140   -1.0670 C.3    37  ARG37       0.2205
     50  NE        15.4340  -15.2890   -0.0840 N.pl3  37  ARG37      -0.0865
     51  CZ        15.5160  -16.6090   -0.1120 C.cat  37  ARG37       0.5346
     52  NH1       16.0520  -17.2680   -1.1270 N.pl3  37  ARG37       0.1354
     53  NH2       15.0230  -17.2910    0.9180 N.pl3  37  ARG37       0.1354
     54  N         19.5290  -13.5750   -0.5790 N.am   38  ASP38      -0.1974
     55  CA        20.2840  -14.7340   -0.9930 C.3    38  ASP38       0.1709
     56  C         21.7870  -14.4990   -0.7580 C.2    38  ASP38       0.2293
     57  O         22.3390  -13.6010   -1.3880 O.2    38  ASP38      -0.2864
     58  CB        20.0420  -15.0420   -2.4820 C.3    38  ASP38       0.1436
     59  CG        18.5880  -15.4080   -2.7740 C.2    38  ASP38       0.3671
     60  OD1       17.9460  -14.7390   -3.5860 O.co2  38  ASP38      -0.2456
     61  OD2       18.0780  -16.3710   -2.1830 O.co2  38  ASP38      -0.2456
     62  N         24.5050  -13.5680   -3.5060 N.3    41  THR41      -0.1218
     63  CA        24.6720  -12.2410   -4.0910 C.3    41  THR41       0.1862
     64  C         25.5670  -11.3440   -3.2520 C.2    41  THR41       0.2287
     65  O         25.6810  -10.1670   -3.6250 O.2    41  THR41      -0.2866
     66  CB        23.2710  -11.5410   -4.1990 C.3    41  THR41       0.1770
     67  OG1       22.7710  -11.3250   -2.8770 O.3    41  THR41      -0.2211
     68  CG2       22.3440  -12.4430   -5.0080 C.3    41  THR41       0.0375
     69  N         18.5350  -12.9540    5.0860 N.3    64  LEU64      -0.1231
     70  CA        17.2930  -12.4640    5.6720 C.3    64  LEU64       0.1693
     71  C         16.3230  -12.2630    4.5080 C.2    64  LEU64       0.2592
     72  O         16.5220  -11.3530    3.7150 O.2    64  LEU64      -0.2718
     73  CB        17.4670  -11.1930    6.5030 C.3    64  LEU64       0.0284
     74  CG        16.3360  -10.6760    7.4000 C.3    64  LEU64       0.0019
     75  CD1       16.7890   -9.5590    8.3580 C.3    64  LEU64       0.0001
     76  CD2       15.2150  -10.1240    6.5330 C.3    64  LEU64       0.0001
     77  N         15.2840  -13.0870    4.5180 N.am   65  ASP65      -0.1960
     78  CA        14.2580  -12.9090    3.4410 C.3    65  ASP65       0.1840
     79  C         13.0470  -12.2950    4.1430 C.2    65  ASP65       0.2622
     80  O         12.4070  -12.9380    4.9920 O.2    65  ASP65      -0.2715
     81  CB        13.9920  -14.2780    2.8440 C.3    65  ASP65       0.1450
     82  CG        12.7120  -14.3760    2.0300 C.2    65  ASP65       0.3671
     83  OD1       12.2060  -13.3250    1.5700 O.co2  65  ASP65      -0.2456
     84  OD2       12.2140  -15.5140    1.8790 O.co2  65  ASP65      -0.2456
     85  N         12.7350  -11.0350    3.7930 N.am   66  VAL66      -0.1963
     86  CA        11.6390  -10.3310    4.4640 C.3    66  VAL66       0.1727
     87  C         10.2640  -10.9400    4.2200 C.2    66  VAL66       0.2616
     88  O          9.3050  -10.4750    4.8490 O.2    66  VAL66      -0.2715
     89  CB        11.6380   -8.8320    4.1620 C.3    66  VAL66       0.0290
     90  CG1       12.9920   -8.1750    4.5160 C.3    66  VAL66       0.0023
     91  CG2       11.4160   -8.5180    2.6920 C.3    66  VAL66       0.0023
     92  N         10.1220  -11.8840    3.2950 N.am   67  ARG67      -0.1977
     93  CA         8.8370  -12.5470    3.0720 C.3    67  ARG67       0.1597
     94  C          8.5440  -13.6080    4.1210 C.2    67  ARG67       0.2287
     95  O          7.4110  -14.1100    4.1990 O.2    67  ARG67      -0.2864
     96  CB         8.8970  -13.1860    1.6760 C.3    67  ARG67       0.0334
     97  CG         9.1030  -12.1820    0.5460 C.3    67  ARG67       0.0492
     98  CD         9.3540  -12.8760   -0.7830 C.3    67  ARG67       0.2205
     99  NE        10.5500  -13.7270   -0.7160 N.pl3  67  ARG67      -0.0865
    100  CZ        11.0420  -14.3730   -1.7740 C.cat  67  ARG67       0.5346
    101  NH1       10.4630  -14.2640   -2.9660 N.pl3  67  ARG67       0.1354
    102  NH2       12.1140  -15.1400   -1.6480 N.pl3  67  ARG67       0.1354
    103  N         15.1620   -1.2890    3.9080 N.3    90  ASN90      -0.1225
    104  CA        15.4910   -0.9320    2.5260 C.3    90  ASN90       0.1785
    105  C         15.1770   -1.9540    1.4690 C.2    90  ASN90       0.2597
    106  O         15.1060   -1.6070    0.2830 O.2    90  ASN90      -0.2718
    107  CB        17.0330   -0.6140    2.5580 C.3    90  ASN90       0.1169
    108  CG        17.5590   -0.4460    1.1610 C.2    90  ASN90       0.2627
    109  OD1       17.3740    0.5620    0.5020 O.2    90  ASN90      -0.2716
    110  ND2       18.2230   -1.4910    0.6530 N.am   90  ASN90      -0.0877
    111  N         15.0140   -3.2280    1.7820 N.am   91  ALA91      -0.1966
    112  CA        14.6870   -4.2560    0.8090 C.3    91  ALA91       0.1728
    113  C         13.4550   -3.8220    0.0250 C.2    91  ALA91       0.2617
    114  O         12.4650   -3.3840    0.6450 O.2    91  ALA91      -0.2715
    115  CB        14.3620   -5.5510    1.5510 C.3    91  ALA91       0.0334
    116  N         13.5200   -3.9320   -1.2950 N.am   92  GLY92      -0.1940
    117  CA        12.3370   -3.5000   -2.0740 C.3    92  GLY92       0.2014
    118  C         12.4970   -4.0410   -3.4930 C.2    92  GLY92       0.2638
    119  O         13.5570   -4.4350   -3.9640 O.2    92  GLY92      -0.2714
    120  N         11.3600   -4.1980   -4.1290 N.am   93  LEU93      -0.1977
    121  CA        11.1880   -4.6310   -5.4790 C.3    93  LEU93       0.1596
    122  C         10.5020   -3.5580   -6.3120 C.2    93  LEU93       0.2287
    123  O          9.6130   -2.8620   -5.8510 O.2    93  LEU93      -0.2864
    124  CB        10.2160   -5.8250   -5.5610 C.3    93  LEU93       0.0297
    125  CG        10.7090   -7.1360   -4.9460 C.3    93  LEU93       0.0022
    126  CD1        9.6050   -8.1640   -5.1850 C.3    93  LEU93       0.0001
    127  CD2       12.0220   -7.5580   -5.5950 C.3    93  LEU93       0.0001
    128  N          6.9650   -8.1010   -0.1840 N.3   113  VAL113     -0.1245
    129  CA         8.3440   -7.6990    0.1780 C.3   113  VAL113      0.1561
    130  C          8.3220   -6.2490    0.6570 C.2   113  VAL113      0.2260
    131  O          8.8490   -5.9460    1.7380 O.2   113  VAL113     -0.2867
    132  CB         9.2370   -7.7760   -1.0760 C.3   113  VAL113      0.0252
    133  CG1       10.6350   -7.2120   -0.8010 C.3   113  VAL113      0.0019
    134  CG2        9.3740   -9.2090   -1.5530 C.3   113  VAL113      0.0019
    135  N         22.4820    2.8210   -9.6460 N.3   190  THR190     -0.1218
    136  CA        22.6780    1.5780   -8.9100 C.3   190  THR190      0.1862
    137  C         22.9760    0.4390   -9.8890 C.2   190  THR190      0.2287
    138  O         24.1480    0.2170  -10.2010 O.2   190  THR190     -0.2866
    139  CB        21.4770    1.2030   -8.0290 C.3   190  THR190      0.1770
    140  OG1       20.2630    1.2500   -8.7970 O.3   190  THR190     -0.2211
    141  CG2       21.2460    2.1170   -6.8340 C.3   190  THR190      0.0375
@<TRIPOS>BOND
     1   138   137    2
     2   137   136    1
     3   135   136    1
     4   136   139    1
     5   140   139    1
     6   139   141    1
     7   122   123    2
     8   122   121    1
     9    22    23    1
    10    22    19    1
    11   127   125    1
    12   124   121    1
    13   124   125    1
    14   121   120    1
    15   126   125    1
    16    68    66    1
    17    24    25    1
    18    24    20   am
    19    25    26    1
    20    19    20    1
    21    19    18    1
    22    66    63    1
    23    66    67    1
    24   120   118   am
    25    15    14    2
    26    63    62    1
    27    63    64    1
    28    20    21    2
    29   119   118    2
    30    17    16    1
    31    65    64    2
    32    60    59   ar
    33   118   117    1
    34    18    14   am
    35    14    13    1
    36    26    28   am
    37    26    27    2
    38   101   100    1
    39    16    13    1
    40    28    29    1
    41    59    58    1
    42    59    61   ar
    43    35    33    1
    44    33    32    1
    45    58    55    1
    46    13    12    1
    47   117   116    1
    48   100   102    1
    49   100    99    2
    50    29    32    1
    51    29    30    1
    52   134   132    1
    53    57    56    2
    54    32    34    1
    55   116   113   am
    56    52    51    1
    57   132   133    1
    58   132   129    1
    59    49    48    1
    60    49    50    1
    61    55    56    1
    62    55    54    1
    63    98    99    1
    64    98    97    1
    65    48    47    1
    66    54    45   am
    67    47    44    1
    68    30    31    2
    69   128   129    1
    70    51    50    2
    71    51    53    1
    72    11    10    2
    73   113   114    2
    74   113   112    1
    75   129   130    1
    76   106   105    2
    77    45    44    1
    78    45    46    2
    79   109   108    2
    80    97    96    1
    81    44    43    1
    82   110   108   am
    83    10     9    1
    84   130   131    2
    85   112   115    1
    86   112   111    1
    87     9     8    1
    88   108   107    1
    89   105   111   am
    90   105   104    1
    91    83    82   ar
    92    96    93    1
    93    84    82   ar
    94    82    81    1
    95     8     3   am
    96   104   107    1
    97   104   103    1
    98    91    89    1
    99    81    78    1
   100     4     3    2
   101    93    92    1
   102    93    94    1
   103    39    38    2
   104     3     2    1
   105    92    87   am
   106    78    79    1
   107    78    77    1
   108    72    71    2
   109    85    79   am
   110    85    86    1
   111    38    37    1
   112    94    95    2
   113    79    80    2
   114    89    86    1
   115    89    90    1
   116    87    86    1
   117    87    88    2
   118    71    77   am
   119    71    70    1
   120     6     5    1
   121     2     5    1
   122     2     1    1
   123     5     7    1
   124    69    70    1
   125    37    36    1
   126    37    40    1
   127    70    73    1
   128    41    40    1
   129    40    42    1
   130    73    74    1
   131    76    74    1
   132    74    75    1
