@<TRIPOS>MOLECULE
tmp/1qz3A00.pdb
 216 208 0 0 0
SMALL
GASTEIGER

@<TRIPOS>ATOM
      1  N         88.2670   56.5200   24.1110 N.3     9  VAL9       -0.1245
      2  CA        87.8730   57.0590   25.4060 C.3     9  VAL9        0.1561
      3  C         87.9100   55.9460   26.4450 C.2     9  VAL9        0.2260
      4  O         88.4660   56.1130   27.5230 O.2     9  VAL9       -0.2867
      5  CB        86.4520   57.6600   25.3550 C.3     9  VAL9        0.0252
      6  CG1       85.8810   57.7860   26.7570 C.3     9  VAL9        0.0019
      7  CG2       86.4970   59.0350   24.6810 C.3     9  VAL9        0.0019
      8  N         91.5230   54.8840   27.4360 N.3    12  GLN12      -0.1231
      9  CA        92.1490   55.8300   28.3370 C.3    12  GLN12       0.1698
     10  C         91.5460   55.6290   29.7180 C.2    12  GLN12       0.2592
     11  O         92.2270   55.7260   30.7360 O.2    12  GLN12      -0.2718
     12  CB        91.8790   57.2500   27.8350 C.3    12  GLN12       0.0381
     13  CG        92.7920   58.3330   28.3970 C.3    12  GLN12       0.0905
     14  CD        92.7290   59.6350   27.5880 C.2    12  GLN12       0.2608
     15  OE1       92.9240   59.6380   26.3630 O.2    12  GLN12      -0.2717
     16  NE2       92.4620   60.7430   28.2710 N.am   12  GLN12      -0.0878
     17  N         90.2630   55.3110   29.7390 N.am   13  LEU13      -0.1980
     18  CA        89.5430   55.1160   30.9830 C.3    13  LEU13       0.1596
     19  C         89.8990   53.8250   31.7010 C.2    13  LEU13       0.2287
     20  O         90.0080   53.8040   32.9250 O.2    13  LEU13      -0.2864
     21  CB        88.0410   55.1630   30.7100 C.3    13  LEU13       0.0297
     22  CG        87.1390   55.3060   31.9260 C.3    13  LEU13       0.0022
     23  CD1       87.5340   56.5360   32.7300 C.3    13  LEU13       0.0001
     24  CD2       85.7060   55.4070   31.4560 C.3    13  LEU13       0.0001
     25  N         93.1380   53.5330   33.9220 N.3    16  MET16      -0.1245
     26  CA        93.0540   53.9770   35.3010 C.3    16  MET16       0.1570
     27  C         92.7000   52.8330   36.2410 C.2    16  MET16       0.2261
     28  O         92.1700   51.8050   35.8120 O.2    16  MET16      -0.2867
     29  CB        92.0040   55.0730   35.4190 C.3    16  MET16       0.0387
     30  CG        92.3800   56.3370   34.7020 C.3    16  MET16       0.0595
     31  SD        90.9920   57.4520   34.5870 S.3    16  MET16      -0.1393
     32  CE        91.3170   58.1730   32.9820 C.3    16  MET16       0.0692
     33  N         84.4820   61.9730   43.4470 N.3    29  PHE29      -0.1241
     34  CA        83.9390   61.6990   42.1210 C.3    29  PHE29       0.1605
     35  C         83.6340   62.9500   41.3180 C.2    29  PHE29       0.2264
     36  O         83.7610   62.9370   40.0970 O.2    29  PHE29      -0.2867
     37  CB        82.6750   60.8390   42.2150 C.3    29  PHE29       0.0534
     38  CG        82.3330   60.1340   40.9360 C.ar   29  PHE29      -0.0203
     39  CD1       83.3260   59.4730   40.2060 C.ar   29  PHE29      -0.0042
     40  CD2       81.0240   60.0830   40.4780 C.ar   29  PHE29      -0.0042
     41  CE1       83.0110   58.7720   39.0440 C.ar   29  PHE29      -0.0003
     42  CE2       80.7000   59.3830   39.3190 C.ar   29  PHE29      -0.0003
     43  CZ        81.6900   58.7270   38.6020 C.ar   29  PHE29      -0.0000
     44  N         86.7230   63.8150   39.5340 N.3    32  GLN32      -0.1231
     45  CA        86.9940   62.9810   38.3810 C.3    32  GLN32       0.1698
     46  C         86.2840   63.4670   37.1260 C.2    32  GLN32       0.2592
     47  O         86.6740   63.1150   36.0170 O.2    32  GLN32      -0.2718
     48  CB        86.6100   61.5370   38.6700 C.3    32  GLN32       0.0381
     49  CG        87.5010   60.8730   39.6980 C.3    32  GLN32       0.0905
     50  CD        87.2690   59.3780   39.7800 C.2    32  GLN32       0.2608
     51  OE1       87.4420   58.6480   38.7990 O.2    32  GLN32      -0.2717
     52  NE2       86.8740   58.9140   40.9500 N.am   32  GLN32      -0.0878
     53  N         85.2500   64.2800   37.2960 N.am   33  GLN33      -0.1979
     54  CA        84.5200   64.7950   36.1520 C.3    33  GLN33       0.1601
     55  C         85.3910   65.7130   35.2870 C.2    33  GLN33       0.2287
     56  O         85.0720   65.9550   34.1270 O.2    33  GLN33      -0.2864
     57  CB        83.2660   65.5520   36.6120 C.3    33  GLN33       0.0394
     58  CG        82.3040   64.7020   37.4290 C.3    33  GLN33       0.0908
     59  CD        82.1130   63.3150   36.8280 C.2    33  GLN33       0.2608
     60  OE1       81.5910   63.1620   35.7180 O.2    33  GLN33      -0.2717
     61  NE2       82.5460   62.2950   37.5610 N.am   33  GLN33      -0.0878
     62  N         87.9630   64.9730   34.0720 N.3    35  LEU35      -0.1231
     63  CA        88.6160   64.0900   33.1120 C.3    35  LEU35       0.1693
     64  C         88.0240   64.2120   31.7060 C.2    35  LEU35       0.2592
     65  O         88.6980   63.8880   30.7250 O.2    35  LEU35      -0.2718
     66  CB        88.5080   62.6420   33.5900 C.3    35  LEU35       0.0284
     67  CG        89.7970   61.8580   33.8520 C.3    35  LEU35       0.0019
     68  CD1       90.8390   62.7400   34.5000 C.3    35  LEU35       0.0001
     69  CD2       89.4710   60.6680   34.7480 C.3    35  LEU35       0.0001
     70  N         86.7680   64.6590   31.6090 N.am   36  PHE36      -0.1963
     71  CA        86.1170   64.8260   30.3120 C.3    36  PHE36       0.1756
     72  C         86.8850   65.8570   29.4890 C.2    36  PHE36       0.2461
     73  O         87.0930   66.9850   29.9280 O.2    36  PHE36      -0.2730
     74  CB        84.6680   65.2900   30.4780 C.3    36  PHE36       0.0574
     75  CG        83.6870   64.1670   30.6930 C.ar   36  PHE36      -0.0200
     76  CD1       83.2840   63.8080   31.9770 C.ar   36  PHE36      -0.0042
     77  CD2       83.1920   63.4500   29.6090 C.ar   36  PHE36      -0.0042
     78  CE1       82.4040   62.7480   32.1780 C.ar   36  PHE36      -0.0003
     79  CE2       82.3160   62.3890   29.7980 C.ar   36  PHE36      -0.0003
     80  CZ        81.9200   62.0350   31.0830 C.ar   36  PHE36      -0.0000
     81  N         87.3060   65.4810   28.2720 N.am   37  PRO37      -0.2727
     82  CA        88.0590   66.3680   27.3840 C.3    37  PRO37       0.1402
     83  C         87.3250   67.6480   27.0000 C.2    37  PRO37       0.2269
     84  O         86.0870   67.7060   27.0130 O.2    37  PRO37      -0.2865
     85  CB        88.3230   65.4930   26.1620 C.3    37  PRO37       0.0296
     86  CG        88.2710   64.1200   26.6940 C.3    37  PRO37       0.0237
     87  CD        87.1100   64.1700   27.6360 C.3    37  PRO37       0.0939
     88  N         74.4050   62.7430   35.4740 N.3    82  GLY82      -0.1210
     89  CA        75.4580   62.6230   36.4560 C.3    82  GLY82       0.1956
     90  C         75.0650   61.8130   37.6760 C.2    82  GLY82       0.2612
     91  O         75.5510   62.0590   38.7820 O.2    82  GLY82      -0.2717
     92  N         74.1890   60.8410   37.4720 N.am   83  GLY83      -0.1942
     93  CA        73.7550   59.9730   38.5550 C.3    83  GLY83       0.2014
     94  C         73.1470   60.6440   39.7710 C.2    83  GLY83       0.2638
     95  O         73.1390   60.0490   40.8430 O.2    83  GLY83      -0.2714
     96  N         72.6270   61.8630   39.6040 N.am   84  TRP84      -0.1973
     97  CA        72.0030   62.6210   40.6950 C.3    84  TRP84       0.1640
     98  C         73.0790   63.0520   41.6880 C.2    84  TRP84       0.2290
     99  O         72.7870   63.5780   42.7590 O.2    84  TRP84      -0.2864
    100  CB        70.9440   61.7730   41.4280 C.3    84  TRP84       0.0576
    101  CG        69.7970   61.2810   40.5620 C.ar   84  TRP84       0.0006
    102  CD1       68.7380   62.0120   40.1170 C.ar   84  TRP84       0.0946
    103  CD2       69.6500   59.9730   39.9830 C.ar   84  TRP84       0.0152
    104  NE1       67.9400   61.2470   39.2880 N.ar   84  TRP84      -0.2442
    105  CE2       68.4780   59.9940   39.1880 C.ar   84  TRP84       0.0810
    106  CE3       70.3950   58.7860   40.0570 C.ar   84  TRP84       0.0012
    107  CZ2       68.0360   58.8770   38.4660 C.ar   84  TRP84       0.0191
    108  CZ3       69.9510   57.6690   39.3340 C.ar   84  TRP84       0.0001
    109  CH2       68.7800   57.7280   38.5460 C.ar   84  TRP84       0.0015
    110  N         76.7710   64.0510   40.3890 N.3    86  VAL86      -0.1245
    111  CA        77.7500   64.9240   39.7640 C.3    86  VAL86       0.1561
    112  C         77.1200   65.7170   38.6360 C.2    86  VAL86       0.2260
    113  O         75.9200   65.5820   38.3550 O.2    86  VAL86      -0.2867
    114  CB        78.9540   64.0970   39.2000 C.3    86  VAL86       0.0252
    115  CG1       79.4990   63.1740   40.2750 C.3    86  VAL86       0.0019
    116  CG2       78.5270   63.2710   37.9710 C.3    86  VAL86       0.0019
    117  N         70.5210   60.7360   31.0290 N.3   154  SER154     -0.1202
    118  CA        70.6540   59.8020   32.1560 C.3   154  SER154      0.2020
    119  C         69.7420   60.2000   33.3210 C.2   154  SER154      0.2618
    120  O         68.5200   60.2380   33.1750 O.2   154  SER154     -0.2717
    121  CB        72.1060   59.7440   32.6330 C.3   154  SER154      0.2103
    122  OG        72.3450   58.5560   33.5180 O.3   154  SER154     -0.2182
    123  N         70.3460   60.4930   34.4700 N.am  155  ALA155     -0.1979
    124  CA        69.6000   60.8980   35.6410 C.3   155  ALA155      0.1597
    125  C         68.7440   62.1120   35.2890 C.2   155  ALA155      0.2287
    126  O         67.6830   62.3330   35.8920 O.2   155  ALA155     -0.2864
    127  CB        70.5670   61.2290   36.7990 C.3   155  ALA155      0.0319
    128  N         67.4210   57.1730   32.6320 N.3   184  SER184     -0.1217
    129  CA        67.3380   56.1470   33.6460 C.3   184  SER184      0.1889
    130  C         65.8650   56.1950   34.0740 C.2   184  SER184      0.2288
    131  O         65.5370   56.7750   35.1080 O.2   184  SER184     -0.2866
    132  CB        68.2290   56.5090   34.8210 C.3   184  SER184      0.2089
    133  OG        68.0530   55.5680   35.8690 O.3   184  SER184     -0.2183
    134  N         82.0210   52.8950   30.3340 N.3   204  LEU204     -0.1231
    135  CA        81.9260   54.1480   31.0840 C.3   204  LEU204      0.1693
    136  C         80.8960   54.0440   32.2080 C.2   204  LEU204      0.2591
    137  O         81.2680   54.0050   33.3830 O.2   204  LEU204     -0.2718
    138  CB        81.5870   55.3110   30.1410 C.3   204  LEU204      0.0284
    139  CG        81.6380   56.7140   30.7440 C.3   204  LEU204      0.0019
    140  CD1       83.0210   56.9850   31.2620 C.3   204  LEU204      0.0001
    141  CD2       81.2730   57.7420   29.6860 C.3   204  LEU204      0.0001
    142  N         79.6110   54.0210   31.8650 N.am  205  LEU205     -0.1980
    143  CA        78.5960   53.8690   32.8970 C.3   205  LEU205      0.1596
    144  C         78.5740   52.3720   33.1610 C.2   205  LEU205      0.2287
    145  O         78.3180   51.5820   32.2640 O.2   205  LEU205     -0.2864
    146  CB        77.2120   54.3240   32.4210 C.3   205  LEU205      0.0297
    147  CG        76.1140   54.0450   33.4610 C.3   205  LEU205      0.0022
    148  CD1       76.4980   54.7010   34.7840 C.3   205  LEU205      0.0001
    149  CD2       74.7540   54.5580   32.9740 C.3   205  LEU205      0.0001
    150  N         79.0930   51.6330   39.0780 N.3   209  MET209     -0.1230
    151  CA        78.9200   53.0680   39.1550 C.3   209  MET209      0.1702
    152  C         77.4670   53.4070   39.4700 C.2   209  MET209      0.2593
    153  O         77.2240   54.2830   40.3030 O.2   209  MET209     -0.2718
    154  CB        79.3190   53.7480   37.8490 C.3   209  MET209      0.0401
    155  CG        79.2230   55.2670   37.9100 C.3   209  MET209      0.0596
    156  SD        79.7330   56.0160   36.3620 S.3   209  MET209     -0.1393
    157  CE        81.5000   55.6460   36.3970 C.3   209  MET209      0.0692
    158  N         76.5100   52.7240   38.8200 N.am  210  SER210     -0.1952
    159  CA        75.0940   52.9920   39.0650 C.3   210  SER210      0.1924
    160  C         74.7990   52.6260   40.4980 C.2   210  SER210      0.2314
    161  O         74.0460   53.3420   41.1650 O.2   210  SER210     -0.2863
    162  CB        74.1810   52.1860   38.1360 C.3   210  SER210      0.2116
    163  OG        74.2790   52.7040   36.8230 O.3   210  SER210     -0.2180
    164  N         75.8800   55.4610   42.6410 N.3   213  PHE213     -0.1241
    165  CA        74.9640   56.5990   42.5130 C.3   213  PHE213      0.1605
    166  C         73.7230   56.3440   43.3820 C.2   213  PHE213      0.2264
    167  O         73.3000   57.2010   44.1570 O.2   213  PHE213     -0.2867
    168  CB        74.4980   56.7570   41.0590 C.3   213  PHE213      0.0534
    169  CG        75.5370   57.3190   40.1220 C.ar  213  PHE213     -0.0203
    170  CD1       75.6270   56.8420   38.8200 C.ar  213  PHE213     -0.0042
    171  CD2       76.3720   58.3540   40.5140 C.ar  213  PHE213     -0.0042
    172  CE1       76.5310   57.3870   37.9140 C.ar  213  PHE213     -0.0003
    173  CE2       77.2790   58.9070   39.6220 C.ar  213  PHE213     -0.0003
    174  CZ        77.3600   58.4200   38.3150 C.ar  213  PHE213     -0.0000
    175  N         71.7250   50.9720   30.3840 N.3   253  LEU253     -0.1245
    176  CA        70.3840   51.5170   30.4410 C.3   253  LEU253      0.1561
    177  C         69.6660   51.4410   29.1010 C.2   253  LEU253      0.2260
    178  O         68.5320   51.9240   28.9700 O.2   253  LEU253     -0.2867
    179  CB        70.4450   52.9710   30.8930 C.3   253  LEU253      0.0270
    180  CG        71.0220   53.2370   32.2760 C.3   253  LEU253      0.0019
    181  CD1       71.0430   54.7200   32.5140 C.3   253  LEU253      0.0001
    182  CD2       70.1820   52.5220   33.3370 C.3   253  LEU253      0.0001
    183  N         76.7370   55.0120   26.8010 N.3   281  HIS281     -0.1226
    184  CA        75.9960   55.9450   27.6060 C.3   281  HIS281      0.1752
    185  C         76.8620   57.1960   27.7350 C.2   281  HIS281      0.2596
    186  O         78.0930   57.1010   27.7760 O.2   281  HIS281     -0.2718
    187  CB        75.7660   55.3560   28.9850 C.3   281  HIS281      0.0759
    188  CG        75.0110   56.2610   29.8960 C.ar  281  HIS281      0.0818
    189  ND1       73.6370   56.2380   29.9900 N.ar  281  HIS281     -0.2268
    190  CD2       75.4310   57.2480   30.7190 C.ar  281  HIS281      0.1154
    191  CE1       73.2410   57.1730   30.8350 C.ar  281  HIS281      0.1986
    192  NE2       74.3100   57.8020   31.2890 N.ar  281  HIS281     -0.2212
    193  N         76.2160   58.3580   27.7990 N.am  282  GLY282     -0.1957
    194  CA        76.9270   59.6170   27.9460 C.3   282  GLY282      0.1869
    195  C         77.6060   60.1550   26.7000 C.2   282  GLY282      0.2309
    196  O         78.4160   61.0730   26.7870 O.2   282  GLY282     -0.2863
    197  N         78.3110   63.9850   25.7300 N.3   285  GLN285     -0.1231
    198  CA        79.4280   64.7180   26.2760 C.3   285  GLN285      0.1698
    199  C         80.6950   64.6270   25.4220 C.2   285  GLN285      0.2592
    200  O         81.7100   65.2490   25.7330 O.2   285  GLN285     -0.2718
    201  CB        79.6730   64.2640   27.7190 C.3   285  GLN285      0.0381
    202  CG        78.6570   64.8640   28.6690 C.3   285  GLN285      0.0905
    203  CD        78.6660   64.2270   30.0310 C.2   285  GLN285      0.2608
    204  OE1       77.9200   63.2880   30.2920 O.2   285  GLN285     -0.2717
    205  NE2       79.5220   64.7290   30.9150 N.am  285  GLN285     -0.0878
    206  N         80.6330   63.8630   24.3350 N.am  286  PHE286     -0.1976
    207  CA        81.7860   63.7600   23.4540 C.3   286  PHE286      0.1639
    208  C         81.4640   64.3930   22.1100 C.2   286  PHE286      0.2290
    209  O         82.1010   64.1020   21.0930 O.2   286  PHE286     -0.2864
    210  CB        82.2330   62.3080   23.3010 C.3   286  PHE286      0.0560
    211  CG        82.7050   61.7030   24.5840 C.ar  286  PHE286     -0.0200
    212  CD1       81.8380   60.9580   25.3750 C.ar  286  PHE286     -0.0042
    213  CD2       83.9870   61.9440   25.0390 C.ar  286  PHE286     -0.0042
    214  CE1       82.2430   60.4660   26.6080 C.ar  286  PHE286     -0.0003
    215  CE2       84.4050   61.4590   26.2680 C.ar  286  PHE286     -0.0003
    216  CZ        83.5330   60.7190   27.0570 C.ar  286  PHE286     -0.0000
@<TRIPOS>BOND
     1   209   208    2
     2   208   207    1
     3   210   207    1
     4   210   211    1
     5   207   206    1
     6     1     2    1
     7   206   199   am
     8   211   213   ar
     9   211   212   ar
    10     7     5    1
    11   213   215   ar
    12     5     2    1
    13     5     6    1
    14   212   214   ar
    15     2     3    1
    16   199   200    2
    17   199   198    1
    18   197   198    1
    19    85    86    1
    20    85    82    1
    21   215   216   ar
    22   198   201    1
    23    15    14    2
    24     3     4    2
    25   214   216   ar
    26    86    87    1
    27   195   196    2
    28   195   194    1
    29   183   184    1
    30    83    84    2
    31    83    82    1
    32    82    81    1
    33     8     9    1
    34    14    16   am
    35    14    13    1
    36   184   185    1
    37   184   187    1
    38    87    81    1
    39   201   202    1
    40   185   186    2
    41   185   193   am
    42   193   194    1
    43    12     9    1
    44    12    13    1
    45    81    72   am
    46     9    10    1
    47   202   203    1
    48   178   177    2
    49   187   188    1
    50   177   176    1
    51    72    73    2
    52    72    71    1
    53    77    79   ar
    54    77    75   ar
    55   141   139    1
    56    10    17   am
    57    10    11    2
    58    17    18    1
    59    79    80   ar
    60   188   189   ar
    61   188   190   ar
    62   189   191   ar
    63   203   204    2
    64   203   205   am
    65   138   139    1
    66   138   135    1
    67    71    74    1
    68    71    70    1
    69   134   135    1
    70   175   176    1
    71   176   179    1
    72    74    75    1
    73    75    76   ar
    74    21    18    1
    75    21    22    1
    76   190   192   ar
    77    65    64    2
    78   139   140    1
    79   191   192   ar
    80   179   180    1
    81    18    19    1
    82   117   118    1
    83    80    78   ar
    84   135   136    1
    85    24    22    1
    86    70    64   am
    87    19    20    2
    88    64    63    1
    89   142   136   am
    90   142   143    1
    91    22    23    1
    92    76    78   ar
    93   118   121    1
    94   118   119    1
    95   136   137    2
    96   145   144    2
    97   180   181    1
    98   180   182    1
    99   146   143    1
   100   146   147    1
   101   128   129    1
   102   121   122    1
   103   143   144    1
   104   149   147    1
   105    32    31    1
   106    63    66    1
   107    63    62    1
   108   120   119    2
   109   119   123   am
   110   147   148    1
   111    66    67    1
   112   129   130    1
   113   129   132    1
   114    67    68    1
   115    67    69    1
   116    25    26    1
   117   130   131    2
   118    56    55    2
   119   123   124    1
   120    31    30    1
   121    30    29    1
   122   132   133    1
   123    55    54    1
   124   125   124    1
   125   125   126    2
   126    26    29    1
   127    26    27    1
   128    88    89    1
   129   124   127    1
   130    60    59    2
   131    28    27    2
   132    47    46    2
   133    54    57    1
   134    54    53    1
   135   156   157    1
   136   156   155    1
   137    89    90    1
   138    57    58    1
   139   163   162    1
   140    59    58    1
   141    59    61   am
   142    46    53   am
   143    46    45    1
   144    92    90   am
   145    92    93    1
   146    90    91    2
   147   154   155    1
   148   154   151    1
   149   172   174   ar
   150   172   170   ar
   151   116   114    1
   152   162   159    1
   153   174   173   ar
   154   113   112    2
   155    45    48    1
   156    45    44    1
   157   107   109   ar
   158   107   105   ar
   159   109   108   ar
   160    93    94    1
   161    43    41   ar
   162    43    42   ar
   163   112   111    1
   164    48    49    1
   165    51    50    2
   166   170   169   ar
   167   158   159    1
   168   158   152   am
   169    41    39   ar
   170   159   160    1
   171   150   151    1
   172   151   152    1
   173   105   104   ar
   174   105   103   ar
   175   114   111    1
   176   114   115    1
   177   104   102   ar
   178    42    40   ar
   179   108   106   ar
   180   152   153    2
   181    96    94   am
   182    96    97    1
   183   173   171   ar
   184    49    50    1
   185   111   110    1
   186    94    95    2
   187    50    52   am
   188   103   106   ar
   189   103   101   ar
   190    36    35    2
   191   102   101   ar
   192   169   171   ar
   193   169   168    1
   194    39    38   ar
   195    40    38   ar
   196   160   161    2
   197   101   100    1
   198    97   100    1
   199    97    98    1
   200    38    37    1
   201   168   165    1
   202    35    34    1
   203    98    99    2
   204    34    37    1
   205    34    33    1
   206   165   164    1
   207   165   166    1
   208   166   167    2
