@<TRIPOS>MOLECULE
tmp/1qz6A00.pdb
 99 94 0 0 0
SMALL
GASTEIGER

@<TRIPOS>ATOM
      1  N         10.9470  -19.6800   20.7860 N.3   201  CYS201     -0.1221
      2  CA        11.0310  -19.1770   22.1500 C.3   201  CYS201      0.1808
      3  C          9.6760  -18.7340   22.6870 C.2   201  CYS201      0.2601
      4  O          8.7490  -18.4020   21.9160 O.2   201  CYS201     -0.2717
      5  CB        12.0470  -18.0350   22.2380 C.3   201  CYS201      0.0970
      6  SG        13.7510  -18.4940   22.0900 S.3   201  CYS201     -0.0800
      7  N          9.5600  -18.7250   24.0100 N.am  202  TYR202     -0.1962
      8  CA         8.3730  -18.2860   24.6890 C.3   202  TYR202      0.1771
      9  C          8.6990  -17.8620   26.1030 C.2   202  TYR202      0.2619
     10  O          9.7720  -18.1970   26.5980 O.2   202  TYR202     -0.2715
     11  CB         7.3110  -19.3740   24.6970 C.3   202  TYR202      0.0574
     12  CG         7.6200  -20.6060   25.5690 C.ar  202  TYR202     -0.0198
     13  CD1        7.1600  -20.6890   26.8590 C.ar  202  TYR202     -0.0009
     14  CD2        8.3520  -21.6700   25.0610 C.ar  202  TYR202     -0.0009
     15  CE1        7.4100  -21.8050   27.6430 C.ar  202  TYR202      0.0417
     16  CE2        8.5950  -22.8200   25.8470 C.ar  202  TYR202      0.0417
     17  CZ         8.1210  -22.8640   27.1170 C.ar  202  TYR202      0.1957
     18  OH         8.3650  -24.0130   27.8760 O.3   202  TYR202     -0.2866
     19  N          7.7610  -17.1340   26.7170 N.am  203  VAL203     -0.1963
     20  CA         7.8890  -16.6610   28.0790 C.3   203  VAL203      0.1727
     21  C          7.1340  -17.6000   29.0180 C.2   203  VAL203      0.2616
     22  O          5.9080  -17.8080   28.8910 O.2   203  VAL203     -0.2715
     23  CB         7.3930  -15.2160   28.2390 C.3   203  VAL203      0.0290
     24  CG1        7.3430  -14.8080   29.6950 C.3   203  VAL203      0.0023
     25  CG2        8.3260  -14.2850   27.4540 C.3   203  VAL203      0.0023
     26  N          7.8860  -18.1810   29.9500 N.am  204  ALA204     -0.1963
     27  CA         7.3230  -19.0380   30.9820 C.3   204  ALA204      0.1728
     28  C          6.4920  -18.2430   31.9690 C.2   204  ALA204      0.2616
     29  O          6.8580  -17.1530   32.3600 O.2   204  ALA204     -0.2715
     30  CB         8.4660  -19.7470   31.7230 C.3   204  ALA204      0.0334
     31  N          5.3680  -18.8200   32.3870 N.am  205  LEU205     -0.1977
     32  CA         4.5060  -18.1600   33.3650 C.3   205  LEU205      0.1596
     33  C          5.1900  -18.1680   34.7360 C.2   205  LEU205      0.2287
     34  O          5.1430  -17.1830   35.4730 O.2   205  LEU205     -0.2864
     35  CB         3.1300  -18.8480   33.4370 C.3   205  LEU205      0.0297
     36  CG         2.1450  -18.1800   34.3900 C.3   205  LEU205      0.0022
     37  CD1        1.8310  -16.7670   33.9800 C.3   205  LEU205      0.0001
     38  CD2        0.8300  -19.0020   34.4430 C.3   205  LEU205      0.0001
     39  N          8.8870  -24.0710   35.0560 N.3   210  GLU210     -0.1245
     40  CA         9.2390  -24.4470   33.7290 C.3   210  GLU210      0.1567
     41  C         10.6220  -25.1230   33.6670 C.2   210  GLU210      0.2260
     42  O         10.7930  -26.1040   32.9510 O.2   210  GLU210     -0.2867
     43  CB         9.1890  -23.2210   32.7950 C.3   210  GLU210      0.0388
     44  CG         8.7820  -23.5560   31.3960 C.3   210  GLU210      0.1160
     45  CD         7.3070  -23.8980   31.2020 C.2   210  GLU210      0.3649
     46  OE1        6.5320  -23.9560   32.2110 O.co2 210  GLU210     -0.2457
     47  OE2        6.9160  -24.1710   30.0480 O.co2 210  GLU210     -0.2457
     48  N         10.1000  -28.6630   34.7710 N.3   213  THR213     -0.1218
     49  CA         9.4630  -29.4510   33.7380 C.3   213  THR213      0.1862
     50  C         10.4770  -29.9000   32.6880 C.2   213  THR213      0.2287
     51  O         10.5000  -31.0320   32.2620 O.2   213  THR213     -0.2866
     52  CB         8.2950  -28.6690   33.0910 C.3   213  THR213      0.1770
     53  OG1        7.2710  -28.4510   34.0790 O.3   213  THR213     -0.2211
     54  CG2        7.6430  -29.4640   31.9970 C.3   213  THR213      0.0375
     55  N          8.9460  -32.9670   27.1370 N.3   219  SER219     -0.1202
     56  CA         7.7140  -32.3380   26.6810 C.3   219  SER219      0.2020
     57  C          7.9210  -30.9340   26.0920 C.2   219  SER219      0.2618
     58  O          7.1270  -30.5040   25.2370 O.2   219  SER219     -0.2717
     59  CB         6.6760  -32.2710   27.8180 C.3   219  SER219      0.2103
     60  OG         7.0500  -31.3770   28.8640 O.3   219  SER219     -0.2182
     61  N          8.9760  -30.2630   26.5340 N.am  220  LEU220     -0.1979
     62  CA         9.2720  -28.8990   26.0550 C.3   220  LEU220      0.1596
     63  C         10.3120  -28.8190   24.9370 C.2   220  LEU220      0.2287
     64  O         10.6750  -27.7240   24.4730 O.2   220  LEU220     -0.2864
     65  CB         9.6520  -27.9980   27.2250 C.3   220  LEU220      0.0297
     66  CG         8.6140  -27.8950   28.3670 C.3   220  LEU220      0.0022
     67  CD1        9.0870  -26.9910   29.4740 C.3   220  LEU220      0.0001
     68  CD2        7.2660  -27.4240   27.8910 C.3   220  LEU220      0.0001
     69  N         11.9040  -28.8530   21.2720 N.3   222  LYS222     -0.1245
     70  CA        11.5660  -28.5820   19.8810 C.3   222  LYS222      0.1561
     71  C         12.8220  -28.6660   19.0550 C.2   222  LYS222      0.2260
     72  O         13.9020  -28.3920   19.5350 O.2   222  LYS222     -0.2867
     73  CB        10.9950  -27.1780   19.7250 C.3   222  LYS222      0.0271
     74  CG         9.7160  -26.9710   20.4010 C.3   222  LYS222      0.0035
     75  CD         8.5960  -27.7130   19.7090 C.3   222  LYS222      0.0206
     76  CE         7.2470  -27.1580   20.1560 C.3   222  LYS222      0.1093
     77  NZ         6.1360  -28.0250   19.7110 N.3   222  LYS222     -0.1314
     78  N         14.4050  -22.3380   25.1320 N.3   238  ARG238     -0.1245
     79  CA        13.2190  -21.6860   24.5710 C.3   238  ARG238      0.1563
     80  C         12.6860  -20.5880   25.4560 C.2   238  ARG238      0.2260
     81  O         12.2660  -19.5430   24.9410 O.2   238  ARG238     -0.2867
     82  CB        12.0770  -22.6700   24.3000 C.3   238  ARG238      0.0307
     83  CG        12.3850  -23.7520   23.2960 C.3   238  ARG238      0.0489
     84  CD        11.2970  -24.7990   23.2010 C.3   238  ARG238      0.2205
     85  NE        10.0440  -24.2220   22.7120 N.pl3 238  ARG238     -0.0865
     86  CZ         8.8290  -24.7070   22.9220 C.cat 238  ARG238      0.5346
     87  NH1        8.6490  -25.8170   23.6440 N.pl3 238  ARG238      0.1354
     88  NH2        7.7820  -24.0910   22.4180 N.pl3 238  ARG238      0.1354
     89  N          4.9470  -15.8090   22.7560 N.3   291  PRO291     -0.2102
     90  CA         3.8460  -16.4600   23.4670 C.3   291  PRO291      0.1504
     91  C          4.0870  -16.4200   24.9560 C.2   291  PRO291      0.2576
     92  O          5.2330  -16.6240   25.3850 O.2   291  PRO291     -0.2718
     93  CB         3.8860  -17.8930   22.9260 C.3   291  PRO291      0.0282
     94  CG         4.5250  -17.7320   21.5460 C.3   291  PRO291      0.0208
     95  CD         5.5430  -16.6440   21.7060 C.3   291  PRO291      0.0893
     96  N          3.0400  -16.1590   25.7260 N.am  292  GLY292     -0.1957
     97  CA         3.1540  -16.1650   27.1640 C.3   292  GLY292      0.1869
     98  C          3.4910  -14.8540   27.8080 C.2   292  GLY292      0.2309
     99  O          3.3640  -14.7120   29.0130 O.2   292  GLY292     -0.2863
@<TRIPOS>BOND
     1    71    72    2
     2    71    70    1
     3    75    76    1
     4    75    74    1
     5    77    76    1
     6    73    70    1
     7    73    74    1
     8    70    69    1
     9     1     2    1
    10    94    95    1
    11    94    93    1
    12    95    89    1
    13     4     3    2
    14     6     5    1
    15     2     5    1
    16     2     3    1
    17    88    86    1
    18     3     7   am
    19    85    86    2
    20    85    84    1
    21    89    90    1
    22    86    87    1
    23    93    90    1
    24    84    83    1
    25    83    82    1
    26    90    91    1
    27     7     8    1
    28    82    79    1
    29    64    63    2
    30    79    78    1
    31    79    80    1
    32     8    11    1
    33     8     9    1
    34    11    12    1
    35    63    62    1
    36    81    80    2
    37    91    92    2
    38    91    96   am
    39    14    12   ar
    40    14    16   ar
    41    58    57    2
    42    12    13   ar
    43    96    97    1
    44    16    17   ar
    45    62    61    1
    46    62    65    1
    47    57    61   am
    48    57    56    1
    49     9    10    2
    50     9    19   am
    51    56    55    1
    52    56    59    1
    53    19    20    1
    54    13    15   ar
    55    17    15   ar
    56    17    18    1
    57    97    98    1
    58    65    66    1
    59    25    23    1
    60    98    99    2
    61    59    60    1
    62    68    66    1
    63    20    23    1
    64    20    21    1
    65    23    24    1
    66    66    67    1
    67    22    21    2
    68    21    26   am
    69    26    27    1
    70    47    45   ar
    71    27    30    1
    72    27    28    1
    73    45    44    1
    74    45    46   ar
    75    44    43    1
    76    28    29    2
    77    28    31   am
    78    54    52    1
    79    51    50    2
    80    31    32    1
    81    50    49    1
    82    43    40    1
    83    42    41    2
    84    52    49    1
    85    52    53    1
    86    32    35    1
    87    32    33    1
    88    35    36    1
    89    41    40    1
    90    40    39    1
    91    49    48    1
    92    37    36    1
    93    36    38    1
    94    33    34    2
