@<TRIPOS>MOLECULE
tmp/1qz6A02.pdb
 212 204 0 0 0
SMALL
GASTEIGER

@<TRIPOS>ATOM
      1  N         -3.3390    5.5890    5.9750 N.3    19  GLY19      -0.1210
      2  CA        -4.6200    4.9420    5.6840 C.3    19  GLY19       0.1956
      3  C         -4.5030    3.4640    5.3750 C.2    19  GLY19       0.2612
      4  O         -5.5030    2.7200    5.4940 O.2    19  GLY19      -0.2717
      5  N         -3.3130    2.9840    4.9970 N.am   20  ASP20      -0.1959
      6  CA        -3.1180    1.5550    4.7310 C.3    20  ASP20       0.1840
      7  C         -3.1230    0.8000    6.0640 C.2    20  ASP20       0.2622
      8  O         -2.8140    1.3720    7.1280 O.2    20  ASP20      -0.2715
      9  CB        -1.7990    1.2600    4.0360 C.3    20  ASP20       0.1450
     10  CG        -1.8080    1.5470    2.5480 C.2    20  ASP20       0.3671
     11  OD1       -2.8320    2.0560    2.0080 O.co2  20  ASP20      -0.2456
     12  OD2       -0.7760    1.2600    1.8680 O.co2  20  ASP20      -0.2456
     13  N         -3.4450   -0.4930    6.0160 N.am   21  ASP21      -0.1971
     14  CA        -3.5490   -1.2580    7.2410 C.3    21  ASP21       0.1709
     15  C         -2.2210   -1.8030    7.7690 C.2    21  ASP21       0.2293
     16  O         -2.1570   -2.3220    8.8630 O.2    21  ASP21      -0.2864
     17  CB        -4.5070   -2.4510    7.0590 C.3    21  ASP21       0.1436
     18  CG        -3.8940   -3.5910    6.2410 C.2    21  ASP21       0.3671
     19  OD1       -3.1580   -3.3430    5.2760 O.co2  21  ASP21      -0.2456
     20  OD2       -4.0750   -4.8050    6.5140 O.co2  21  ASP21      -0.2456
     21  N          6.0330   15.7170   10.2080 N.3   117  TYR117     -0.1241
     22  CA         5.7970   15.7120   11.6360 C.3   117  TYR117      0.1605
     23  C          6.6450   14.5770   12.2100 C.2   117  TYR117      0.2264
     24  O          6.9230   13.6240   11.4980 O.2   117  TYR117     -0.2867
     25  CB         4.3160   15.4360   11.9410 C.3   117  TYR117      0.0534
     26  CG         3.8750   15.6930   13.3460 C.ar  117  TYR117     -0.0201
     27  CD1        3.3700   16.9340   13.7250 C.ar  117  TYR117     -0.0009
     28  CD2        3.8940   14.6770   14.2980 C.ar  117  TYR117     -0.0009
     29  CE1        2.9590   17.1750   15.0370 C.ar  117  TYR117      0.0417
     30  CE2        3.5130   14.9160   15.5890 C.ar  117  TYR117      0.0417
     31  CZ         3.0380   16.1630   15.9550 C.ar  117  TYR117      0.1957
     32  OH         2.6240   16.4010   17.2320 O.3   117  TYR117     -0.2866
     33  N          6.5160   12.0010   15.5460 N.3   119  ALA119     -0.1231
     34  CA         5.7730   11.5350   16.6860 C.3   119  ALA119      0.1694
     35  C          6.5520   10.4980   17.4560 C.2   119  ALA119      0.2591
     36  O          7.3540    9.7420   16.8940 O.2   119  ALA119     -0.2718
     37  CB         4.4410   10.9220   16.2730 C.3   119  ALA119      0.0304
     38  N          6.2660   10.4220   18.7420 N.am  120  ILE120     -0.1980
     39  CA         6.8740    9.3880   19.6020 C.3   120  ILE120      0.1595
     40  C          6.2700    8.0330   19.3250 C.2   120  ILE120      0.2287
     41  O          5.0580    7.8570   19.3060 O.2   120  ILE120     -0.2864
     42  CB         6.6990    9.7530   21.0950 C.3   120  ILE120      0.0276
     43  CG1        7.4350   11.0530   21.4130 C.3   120  ILE120      0.0022
     44  CG2        7.1930    8.6370   21.9630 C.3   120  ILE120      0.0022
     45  CD1        7.1370   11.6000   22.7880 C.3   120  ILE120      0.0001
     46  N          3.6430    6.4310   21.6270 N.3   123  VAL123     -0.1245
     47  CA         2.3700    7.1510   21.5920 C.3   123  VAL123      0.1561
     48  C          1.5200    6.6360   20.4130 C.2   123  VAL123      0.2260
     49  O          0.3030    6.3140   20.5680 O.2   123  VAL123     -0.2867
     50  CB         2.5970    8.6610   21.5160 C.3   123  VAL123      0.0252
     51  CG1        1.2950    9.3730   21.2950 C.3   123  VAL123      0.0019
     52  CG2        3.2610    9.1560   22.7910 C.3   123  VAL123      0.0019
     53  N         -2.2880    4.7610   20.2300 N.3   127  TYR127     -0.1227
     54  CA        -3.3930    5.1690   19.3450 C.3   127  TYR127      0.1736
     55  C         -3.9100    4.0220   18.5270 C.2   127  TYR127      0.2595
     56  O         -5.1120    3.9590   18.2520 O.2   127  TYR127     -0.2718
     57  CB        -2.9550    6.2790   18.3980 C.3   127  TYR127      0.0548
     58  CG        -2.5240    7.6210   19.0020 C.ar  127  TYR127     -0.0200
     59  CD1       -2.7520    7.9850   20.3400 C.ar  127  TYR127     -0.0009
     60  CD2       -1.8720    8.5480   18.1970 C.ar  127  TYR127     -0.0009
     61  CE1       -2.3280    9.1960   20.8310 C.ar  127  TYR127      0.0417
     62  CE2       -1.4710    9.7600   18.6770 C.ar  127  TYR127      0.0417
     63  CZ        -1.7070   10.0910   19.9860 C.ar  127  TYR127      0.1957
     64  OH        -1.2810   11.2970   20.4850 O.3   127  TYR127     -0.2866
     65  N         -3.0210    3.1290   18.1020 N.am  128  ALA128     -0.1966
     66  CA        -3.4040    1.9800   17.2640 C.3   128  ALA128      0.1728
     67  C         -4.2820    1.0130   18.0320 C.2   128  ALA128      0.2617
     68  O         -4.8600    0.1170   17.4130 O.2   128  ALA128     -0.2715
     69  CB        -2.1670    1.2620   16.7440 C.3   128  ALA128      0.0334
     70  N         -4.2750    1.1130   19.3630 N.am  129  SER129     -0.1936
     71  CA        -5.1370    0.2910   20.2420 C.3   129  SER129      0.2055
     72  C         -6.4470    1.0020   20.5780 C.2   129  SER129      0.2644
     73  O         -7.2550    0.4700   21.3370 O.2   129  SER129     -0.2714
     74  CB        -4.4240   -0.0930   21.5210 C.3   129  SER129      0.2130
     75  OG        -4.4290    0.9570   22.4820 O.3   129  SER129     -0.2179
     76  N         -6.6580    2.1690   20.0010 N.am  130  GLY130     -0.1939
     77  CA        -7.8910    2.9180   20.2200 C.3   130  GLY130      0.2014
     78  C         -7.9600    3.7190   21.4970 C.2   130  GLY130      0.2639
     79  O         -9.0810    4.0570   21.9260 O.2   130  GLY130     -0.2714
     80  N         -6.7950    4.0850   22.0540 N.am  131  ARG131     -0.1963
     81  CA        -6.6520    4.7320   23.3480 C.3   131  ARG131      0.1729
     82  C         -5.8360    6.0020   23.2490 C.2   131  ARG131      0.2616
     83  O         -4.9650    6.1120   22.4050 O.2   131  ARG131     -0.2715
     84  CB        -5.9330    3.8080   24.3290 C.3   131  ARG131      0.0348
     85  CG        -6.7100    2.5710   24.7380 C.3   131  ARG131      0.0492
     86  CD        -5.8800    1.6150   25.5440 C.3   131  ARG131      0.2205
     87  NE        -6.6850    0.5200   26.0880 N.pl3 131  ARG131     -0.0865
     88  CZ        -7.0900   -0.5250   25.4170 C.cat 131  ARG131      0.5346
     89  NH1       -6.7510   -0.7020   24.1510 N.pl3 131  ARG131      0.1354
     90  NH2       -7.8430   -1.4330   26.0140 N.pl3 131  ARG131      0.1354
     91  N         -6.1460    6.9380   24.1280 N.am  132  THR132     -0.1951
     92  CA        -5.3260    8.1200   24.3400 C.3   132  THR132      0.1897
     93  C         -4.7200    8.1830   25.7340 C.2   132  THR132      0.2313
     94  O         -3.9050    9.0510   25.9990 O.2   132  THR132     -0.2863
     95  CB        -6.0880    9.4180   23.9970 C.3   132  THR132      0.1794
     96  OG1       -7.3780    9.4060   24.6370 O.3   132  THR132     -0.2208
     97  CG2       -6.3550    9.5000   22.5000 C.3   132  THR132      0.0378
     98  N         -4.2130   11.5810   28.0890 N.3   151  GLU151     -0.1231
     99  CA        -4.9220   12.4640   27.1450 C.3   151  GLU151      0.1699
    100  C         -4.1510   12.7910   25.8850 C.2   151  GLU151      0.2593
    101  O         -4.0980   13.9430   25.4390 O.2   151  GLU151     -0.2718
    102  CB        -5.3810   13.7390   27.8600 C.3   151  GLU151      0.0402
    103  CG        -6.3560   13.4180   28.9680 C.3   151  GLU151      0.1161
    104  CD        -6.9870   14.6640   29.5810 C.2   151  GLU151      0.3649
    105  OE1       -6.2900   15.6920   29.6850 O.co2 151  GLU151     -0.2457
    106  OE2       -8.1730   14.5930   29.9560 O.co2 151  GLU151     -0.2457
    107  N         -3.5240   11.7540   25.3260 N.am  152  GLY152     -0.1942
    108  CA        -2.8970   11.8120   24.0430 C.3   152  GLY152      0.2014
    109  C         -1.4050   12.0970   24.0320 C.2   152  GLY152      0.2638
    110  O         -0.7800   11.9550   22.9970 O.2   152  GLY152     -0.2714
    111  N         -0.8510   12.4880   25.1760 N.am  153  TYR153     -0.1973
    112  CA         0.5660   12.8730   25.2340 C.3   153  TYR153      0.1639
    113  C          1.3790   12.0810   26.2670 C.2   153  TYR153      0.2290
    114  O          0.9440   11.8460   27.3890 O.2   153  TYR153     -0.2864
    115  CB         0.6890   14.3770   25.5580 C.3   153  TYR153      0.0560
    116  CG         0.1920   15.2640   24.4500 C.ar  153  TYR153     -0.0198
    117  CD1        1.0750   15.7800   23.5040 C.ar  153  TYR153     -0.0009
    118  CD2       -1.1630   15.5480   24.3380 C.ar  153  TYR153     -0.0009
    119  CE1        0.6000   16.5890   22.4470 C.ar  153  TYR153      0.0417
    120  CE2       -1.6300   16.3430   23.2830 C.ar  153  TYR153      0.0417
    121  CZ        -0.7490   16.8520   22.3800 C.ar  153  TYR153      0.1957
    122  OH        -1.2270   17.6450   21.3520 O.3   153  TYR153     -0.2866
    123  N         -1.2460   -7.6080   15.8390 N.3   318  GLU318     -0.1245
    124  CA        -0.4950   -6.9020   14.8130 C.3   318  GLU318      0.1567
    125  C          0.6380   -6.0940   15.4490 C.2   318  GLU318      0.2260
    126  O          1.1520   -5.2040   14.8170 O.2   318  GLU318     -0.2867
    127  CB        -1.4360   -5.9340   14.0640 C.3   318  GLU318      0.0388
    128  CG        -2.0550   -4.7490   14.8310 C.3   318  GLU318      0.1160
    129  CD        -3.2140   -5.0740   15.7860 C.2   318  GLU318      0.3649
    130  OE1       -3.6650   -6.2370   15.8890 O.co2 318  GLU318     -0.2457
    131  OE2       -3.7050   -4.1370   16.4640 O.co2 318  GLU318     -0.2457
    132  N          1.1560    1.4810   12.3390 N.3   325  ILE325     -0.1245
    133  CA        -0.3010    1.5810   12.2260 C.3   325  ILE325      0.1561
    134  C         -0.8640    2.8110   12.9170 C.2   325  ILE325      0.2260
    135  O         -1.7150    3.5080   12.3430 O.2   325  ILE325     -0.2867
    136  CB        -0.9380    0.2880   12.7610 C.3   325  ILE325      0.0252
    137  CG1       -0.6380   -0.8740   11.8050 C.3   325  ILE325      0.0019
    138  CG2       -2.4580    0.4630   12.9520 C.3   325  ILE325      0.0019
    139  CD1       -0.8860   -2.2190   12.4020 C.3   325  ILE325      0.0001
    140  N         -0.2400    5.6020   10.6890 N.3   328  SER328     -0.1202
    141  CA        -1.1510    5.5380    9.5480 C.3   328  SER328      0.2020
    142  C         -2.5110    6.1460    9.9200 C.2   328  SER328      0.2619
    143  O         -3.1130    6.8990    9.1210 O.2   328  SER328     -0.2717
    144  CB        -1.3280    4.1120    9.1380 C.3   328  SER328      0.2103
    145  OG        -2.1970    4.0380    8.0230 O.3   328  SER328     -0.2182
    146  N         -2.9830    5.8220   11.1110 N.am  329  ILE329     -0.1965
    147  CA        -4.2240    6.3860   11.6080 C.3   329  ILE329      0.1727
    148  C         -4.0850    7.8820   11.7780 C.2   329  ILE329      0.2616
    149  O         -4.8800    8.6470   11.2620 O.2   329  ILE329     -0.2715
    150  CB        -4.6500    5.6940   12.8890 C.3   329  ILE329      0.0290
    151  CG1       -4.9870    4.2270   12.6180 C.3   329  ILE329      0.0022
    152  CG2       -5.8530    6.3990   13.5130 C.3   329  ILE329      0.0023
    153  CD1       -4.9060    3.4080   13.8730 C.3   329  ILE329      0.0001
    154  N         -3.0910    8.3060   12.5360 N.am  330  LEU330     -0.1977
    155  CA        -2.9320    9.6980   12.9000 C.3   330  LEU330      0.1596
    156  C         -2.8380   10.5730   11.6520 C.2   330  LEU330      0.2287
    157  O         -3.4890   11.5900   11.6000 O.2   330  LEU330     -0.2864
    158  CB        -1.6810    9.8750   13.7840 C.3   330  LEU330      0.0297
    159  CG        -1.3700   11.2970   14.2390 C.3   330  LEU330      0.0022
    160  CD1       -2.4710   11.8030   15.1150 C.3   330  LEU330      0.0001
    161  CD2       -0.0090   11.3800   14.9180 C.3   330  LEU330      0.0001
    162  N         -3.8980   10.2040    8.8040 N.3   332  SER332     -0.1202
    163  CA        -5.1870   10.1750    8.0870 C.3   332  SER332      0.2020
    164  C         -6.2060   11.1550    8.6130 C.2   332  SER332      0.2618
    165  O         -7.1350   11.4940    7.8910 O.2   332  SER332     -0.2717
    166  CB        -5.8360    8.7920    8.2060 C.3   332  SER332      0.2103
    167  OG        -5.0950    7.8440    7.5090 O.3   332  SER332     -0.2182
    168  N         -6.0910   11.5780    9.8610 N.am  333  LEU333     -0.1979
    169  CA        -7.2050   12.2840   10.5210 C.3   333  LEU333      0.1596
    170  C         -7.3400   13.7200   10.0780 C.2   333  LEU333      0.2287
    171  O         -6.3590   14.4470    9.9370 O.2   333  LEU333     -0.2864
    172  CB        -7.0370   12.3100   12.0340 C.3   333  LEU333      0.0297
    173  CG        -7.1870   11.0130   12.7950 C.3   333  LEU333      0.0022
    174  CD1       -7.1190   11.3590   14.2550 C.3   333  LEU333      0.0001
    175  CD2       -8.5020   10.2860   12.4400 C.3   333  LEU333      0.0001
    176  N         -8.3650   16.1150   11.8970 N.3   335  THR335     -0.1203
    177  CA        -7.9500   16.9470   13.0270 C.3   335  THR335      0.1994
    178  C         -6.4450   17.0550   13.1470 C.2   335  THR335      0.2617
    179  O         -5.9520   17.8830   13.8950 O.2   335  THR335     -0.2717
    180  CB        -8.5000   16.4510   14.3860 C.3   335  THR335      0.1784
    181  OG1       -8.1450   15.0920   14.6250 O.3   335  THR335     -0.2211
    182  CG2      -10.0340   16.4650   14.4290 C.3   335  THR335      0.0376
    183  N         -5.7270   16.1950   12.4240 N.am  336  PHE336     -0.1975
    184  CA        -4.2590   16.2220   12.4030 C.3   336  PHE336      0.1639
    185  C         -3.6840   17.1570   11.3150 C.2   336  PHE336      0.2290
    186  O         -2.5410   17.5610   11.4050 O.2   336  PHE336     -0.2864
    187  CB        -3.7010   14.7900   12.1980 C.3   336  PHE336      0.0560
    188  CG        -2.1650   14.7140   12.2420 C.ar  336  PHE336     -0.0200
    189  CD1       -1.4880   14.8620   13.4300 C.ar  336  PHE336     -0.0042
    190  CD2       -1.4410   14.5070   11.0950 C.ar  336  PHE336     -0.0042
    191  CE1       -0.1090   14.8160   13.4730 C.ar  336  PHE336     -0.0003
    192  CE2       -0.0420   14.4320   11.1400 C.ar  336  PHE336     -0.0003
    193  CZ         0.6030   14.5790   12.3040 C.ar  336  PHE336     -0.0000
    194  N         -1.7100   20.1840   12.1170 N.3   339  MET339     -0.1245
    195  CA        -0.5350   19.9230   12.9380 C.3   339  MET339      0.1570
    196  C          0.7650   19.6930   12.1620 C.2   339  MET339      0.2261
    197  O          1.8360   19.7980   12.7390 O.2   339  MET339     -0.2867
    198  CB        -0.8080   18.7320   13.8490 C.3   339  MET339      0.0387
    199  CG        -1.8970   19.0410   14.8360 C.3   339  MET339      0.0595
    200  SD        -2.1410   17.7090   16.0060 S.3   339  MET339     -0.1393
    201  CE        -0.7780   17.8250   16.9660 C.3   339  MET339      0.0692
    202  N          4.9660   18.4400   19.9460 N.3   359  PHE359     -0.1241
    203  CA         4.9670   18.3580   21.4220 C.3   359  PHE359      0.1605
    204  C          5.4090   19.6830   22.0330 C.2   359  PHE359      0.2264
    205  O          4.7010   20.6840   21.8950 O.2   359  PHE359     -0.2867
    206  CB         5.8070   17.1900   21.9620 C.3   359  PHE359      0.0534
    207  CG         5.0830   15.8530   21.9150 C.ar  359  PHE359     -0.0203
    208  CD1        4.5970   15.3260   20.7040 C.ar  359  PHE359     -0.0042
    209  CD2        4.8400   15.1430   23.0920 C.ar  359  PHE359     -0.0042
    210  CE1        3.9230   14.0890   20.7010 C.ar  359  PHE359     -0.0003
    211  CE2        4.1680   13.9650   23.0680 C.ar  359  PHE359     -0.0003
    212  CZ         3.7220   13.4240   21.8940 C.ar  359  PHE359     -0.0000
@<TRIPOS>BOND
     1    12    10   ar
     2    11    10   ar
     3    10     9    1
     4     9     6    1
     5     6     5    1
     6     6     7    1
     7     5     3   am
     8    19    18   ar
     9     3     4    2
    10     3     2    1
    11     2     1    1
    12    13     7   am
    13    13    14    1
    14     7     8    2
    15    18    20   ar
    16    18    17    1
    17    17    14    1
    18    14    15    1
    19   167   166    1
    20    15    16    2
    21   165   164    2
    22   145   144    1
    23   163   166    1
    24   163   164    1
    25   163   162    1
    26   164   168   am
    27   143   142    2
    28   144   141    1
    29   141   142    1
    30   141   140    1
    31   168   169    1
    32   142   146   am
    33   171   170    2
    34   170   169    1
    35    21    22    1
    36   169   172    1
    37   190   192   ar
    38   190   188   ar
    39   146   147    1
    40   192   193   ar
    41   149   148    2
    42   185   186    2
    43   185   184    1
    44    24    23    2
    45   157   156    2
    46   147   148    1
    47   147   150    1
    48    22    25    1
    49    22    23    1
    50   156   155    1
    51   148   154   am
    52   137   139    1
    53   137   136    1
    54   176   177    1
    55    25    26    1
    56   172   173    1
    57   194   195    1
    58   196   197    2
    59   196   195    1
    60   187   188    1
    61   187   184    1
    62   133   132    1
    63   133   136    1
    64   133   134    1
    65   188   189   ar
    66   193   191   ar
    67   135   134    2
    68   184   183    1
    69   183   178   am
    70   175   173    1
    71   154   155    1
    72   151   150    1
    73   151   153    1
    74   136   138    1
    75   173   174    1
    76   150   152    1
    77   155   158    1
    78   195   198    1
    79   177   178    1
    80   177   180    1
    81   178   179    2
    82    26    27   ar
    83    26    28   ar
    84   189   191   ar
    85    27    29   ar
    86   158   159    1
    87   198   199    1
    88   127   124    1
    89   127   128    1
    90   159   161    1
    91   159   160    1
    92    28    30   ar
    93   180   182    1
    94   180   181    1
    95   124   125    1
    96   124   123    1
    97   126   125    2
    98   128   129    1
    99   199   200    1
   100    29    31   ar
   101    33    34    1
   102    30    31   ar
   103   129   130   ar
   104   129   131   ar
   105    31    32    1
   106   200   201    1
   107    37    34    1
   108    34    35    1
   109    69    66    1
   110    36    35    2
   111    66    67    1
   112    66    65    1
   113    68    67    2
   114    35    38   am
   115    67    70   am
   116    65    55   am
   117    60    62   ar
   118    60    58   ar
   119    56    55    2
   120    57    58    1
   121    57    54    1
   122    55    54    1
   123    62    63   ar
   124    38    39    1
   125    58    59   ar
   126    41    40    2
   127    40    39    1
   128    54    53    1
   129    70    71    1
   130    39    42    1
   131   202   203    1
   132    63    64    1
   133    63    61   ar
   134    76    77    1
   135    76    72   am
   136    77    78    1
   137    71    72    1
   138    71    74    1
   139    59    61   ar
   140    48    49    2
   141    48    47    1
   142    72    73    2
   143   210   208   ar
   144   210   212   ar
   145   208   207   ar
   146    42    43    1
   147    42    44    1
   148    51    50    1
   149   122   121    1
   150    43    45    1
   151   203   206    1
   152   203   204    1
   153    78    79    2
   154    78    80   am
   155    50    47    1
   156    50    52    1
   157    74    75    1
   158    47    46    1
   159   212   211   ar
   160   205   204    2
   161   207   206    1
   162   207   209   ar
   163    80    81    1
   164   121   119   ar
   165   121   120   ar
   166    83    82    2
   167   119   117   ar
   168    97    95    1
   169   110   109    2
   170   211   209   ar
   171    82    81    1
   172    82    91   am
   173   120   118   ar
   174    81    84    1
   175   117   116   ar
   176    95    92    1
   177    95    96    1
   178   109   108    1
   179   109   111   am
   180   108   107    1
   181    91    92    1
   182    89    88    1
   183    84    85    1
   184   118   116   ar
   185    92    93    1
   186   116   115    1
   187    85    86    1
   188   111   112    1
   189   112   115    1
   190   112   113    1
   191   107   100   am
   192    88    90    1
   193    88    87    2
   194   101   100    2
   195    86    87    1
   196    93    94    2
   197   100    99    1
   198   113   114    2
   199    99   102    1
   200    99    98    1
   201   102   103    1
   202   103   104    1
   203   104   105   ar
   204   104   106   ar
