@<TRIPOS>MOLECULE
tmp/1qz9A00.pdb
 120 114 0 0 0
SMALL
GASTEIGER

@<TRIPOS>ATOM
      1  N         20.7400   54.8340   44.3970 N.3    95  THR95      -0.1203
      2  CA        20.5750   54.2890   43.0430 C.3    95  THR95       0.1994
      3  C         21.6960   53.3220   42.7390 C.2    95  THR95       0.2619
      4  O         22.6710   53.2350   43.4690 O.2    95  THR95      -0.2717
      5  CB        20.5610   55.4280   41.9800 C.3    95  THR95       0.1784
      6  OG1       21.8800   55.9660   41.8140 O.3    95  THR95      -0.2211
      7  CG2       19.7420   56.6120   42.4440 C.3    95  THR95       0.0376
      8  N         21.5440   52.5700   41.6580 N.am   96  THR96      -0.1938
      9  CA        22.4990   51.5270   41.3170 C.3    96  THR96       0.2028
     10  C         23.8850   52.1270   41.0800 C.2    96  THR96       0.2642
     11  O         24.8850   51.5810   41.5240 O.2    96  THR96      -0.2714
     12  CB        22.0010   50.7420   40.0810 C.3    96  THR96       0.1808
     13  OG1       20.6900   50.2120   40.3450 O.3    96  THR96      -0.2208
     14  CG2       22.8550   49.5180   39.8340 C.3    96  THR96       0.0379
     15  N         23.9340   53.2800   40.4220 N.am   97  SER97      -0.1949
     16  CA        25.2090   53.9660   40.1590 C.3    97  SER97       0.1924
     17  C         25.9280   54.2970   41.4620 C.2    97  SER97       0.2314
     18  O         27.1310   54.0550   41.6010 O.2    97  SER97      -0.2863
     19  CB        24.9670   55.2560   39.3720 C.3    97  SER97       0.2116
     20  OG        24.3820   54.9730   38.1110 O.3    97  SER97      -0.2180
     21  N         26.3410   47.8590   30.8310 N.3   128  PHE128     -0.1241
     22  CA        25.4680   49.0190   30.9550 C.3   128  PHE128      0.1605
     23  C         26.3330   50.2670   31.1750 C.2   128  PHE128      0.2264
     24  O         27.2130   50.2450   32.0240 O.2   128  PHE128     -0.2867
     25  CB        24.4980   48.8160   32.1200 C.3   128  PHE128      0.0534
     26  CG        23.3870   49.8150   32.1630 C.ar  128  PHE128     -0.0203
     27  CD1       22.1970   49.5790   31.4990 C.ar  128  PHE128     -0.0042
     28  CD2       23.5290   50.9900   32.8790 C.ar  128  PHE128     -0.0042
     29  CE1       21.1730   50.5170   31.5410 C.ar  128  PHE128     -0.0003
     30  CE2       22.5220   51.9160   32.9290 C.ar  128  PHE128     -0.0003
     31  CZ        21.3350   51.6830   32.2650 C.ar  128  PHE128     -0.0000
     32  N         26.2990   53.2370   32.6250 N.3   130  THR130     -0.1203
     33  CA        26.5350   53.8490   33.9350 C.3   130  THR130      0.1994
     34  C         27.5300   53.0650   34.8010 C.2   130  THR130      0.2617
     35  O         28.2530   53.6550   35.5760 O.2   130  THR130     -0.2717
     36  CB        25.2110   54.1370   34.6870 C.3   130  THR130      0.1784
     37  OG1       25.4180   55.2330   35.5850 O.3   130  THR130     -0.2211
     38  CG2       24.7860   53.0010   35.5990 C.3   130  THR130      0.0376
     39  N         27.5620   51.7390   34.6680 N.am  131  ASP131     -0.1973
     40  CA        28.5130   50.9290   35.4230 C.3   131  ASP131      0.1709
     41  C         29.9300   51.2740   35.0000 C.2   131  ASP131      0.2293
     42  O         30.8060   51.4490   35.8460 O.2   131  ASP131     -0.2864
     43  CB        28.2580   49.4240   35.2430 C.3   131  ASP131      0.1436
     44  CG        26.9690   48.9670   35.8900 C.2   131  ASP131      0.3671
     45  OD1       26.9810   47.9810   36.6620 O.co2 131  ASP131     -0.2456
     46  OD2       25.8780   49.5440   35.6890 O.co2 131  ASP131     -0.2456
     47  N         27.9010   42.9080   35.0000 N.3   171  THR171     -0.1218
     48  CA        26.4620   42.7910   35.0430 C.3   171  THR171      0.1862
     49  C         26.1160   41.3500   34.6760 C.2   171  THR171      0.2287
     50  O         26.5050   40.8650   33.6190 O.2   171  THR171     -0.2866
     51  CB        25.7980   43.8210   34.1020 C.3   171  THR171      0.1770
     52  OG1       26.0420   45.1600   34.5850 O.3   171  THR171     -0.2211
     53  CG2       24.2830   43.6970   34.1740 C.3   171  THR171      0.0375
     54  N         22.4740   43.7430   29.4610 N.3   175  TYR175     -0.1241
     55  CA        21.2920   44.5690   29.2020 C.3   175  TYR175      0.1605
     56  C         20.8730   44.6270   27.7330 C.2   175  TYR175      0.2264
     57  O         19.7150   44.9020   27.4480 O.2   175  TYR175     -0.2867
     58  CB        21.4820   45.9880   29.7560 C.3   175  TYR175      0.0534
     59  CG        22.1700   46.9790   28.8370 C.ar  175  TYR175     -0.0201
     60  CD1       21.4460   47.9960   28.2140 C.ar  175  TYR175     -0.0009
     61  CD2       23.5470   46.9320   28.6260 C.ar  175  TYR175     -0.0009
     62  CE1       22.0740   48.9250   27.3820 C.ar  175  TYR175      0.0417
     63  CE2       24.1800   47.8550   27.7890 C.ar  175  TYR175      0.0417
     64  CZ        23.4370   48.8470   27.1770 C.ar  175  TYR175      0.1957
     65  OH        24.0500   49.7700   26.3530 O.3   175  TYR175     -0.2866
     66  N         26.4050   43.2360   39.2600 N.3   200  ASP200     -0.1239
     67  CA        25.2290   44.0720   39.0540 C.3   200  ASP200      0.1674
     68  C         24.0700   43.1590   38.6380 C.2   200  ASP200      0.2266
     69  O         24.1500   42.4780   37.5980 O.2   200  ASP200     -0.2867
     70  CB        25.5190   45.1200   37.9770 C.3   200  ASP200      0.1410
     71  CG        24.4450   46.2040   37.8850 C.2   200  ASP200      0.3668
     72  OD1       23.2670   45.9110   38.1410 O.co2 200  ASP200     -0.2456
     73  OD2       24.6860   47.3880   37.5520 O.co2 200  ASP200     -0.2456
     74  N         20.8540   44.0810   38.0430 N.3   202  ALA202     -0.1231
     75  CA        19.7260   44.8480   37.4900 C.3   202  ALA202      0.1694
     76  C         18.7560   44.0090   36.6540 C.2   202  ALA202      0.2592
     77  O         17.5230   44.2050   36.7270 O.2   202  ALA202     -0.2718
     78  CB        20.2310   46.0270   36.6730 C.3   202  ALA202      0.0304
     79  N         19.3120   43.1130   35.8370 N.am  203  HIS203     -0.1976
     80  CA        18.5090   42.2270   34.9650 C.3   203  HIS203      0.1656
     81  C         18.4290   40.7840   35.4620 C.2   203  HIS203      0.2291
     82  O         18.0900   39.8610   34.7020 O.2   203  HIS203     -0.2864
     83  CB        19.0090   42.3330   33.4990 C.3   203  HIS203      0.0771
     84  CG        18.6360   43.6290   32.8540 C.ar  203  HIS203      0.0820
     85  ND1       17.4150   43.8410   32.2590 N.ar  203  HIS203     -0.2267
     86  CD2       19.3010   44.8080   32.7800 C.ar  203  HIS203      0.1154
     87  CE1       17.3450   45.0900   31.8340 C.ar  203  HIS203      0.1986
     88  NE2       18.4760   45.6970   32.1410 N.ar  203  HIS203     -0.2212
     89  N         18.7090   47.0410   40.8420 N.3   223  CYS223     -0.1235
     90  CA        17.5780   47.9740   40.7810 C.3   223  CYS223      0.1677
     91  C         16.3090   47.3490   41.3290 C.2   223  CYS223      0.2270
     92  O         16.1270   46.1200   41.2610 O.2   223  CYS223     -0.2867
     93  CB        17.2610   48.3770   39.3230 C.3   223  CYS223      0.0956
     94  SG        18.6250   49.0060   38.3410 S.3   223  CYS223     -0.0801
     95  N         13.3630   48.9470   40.2250 N.3   225  TYR225     -0.1227
     96  CA        12.3060   49.5080   39.3580 C.3   225  TYR225      0.1736
     97  C         12.0500   48.7320   38.0720 C.2   225  TYR225      0.2595
     98  O         11.1720   49.0950   37.2840 O.2   225  TYR225     -0.2718
     99  CB        12.5610   50.9830   39.0640 C.3   225  TYR225      0.0548
    100  CG        13.8030   51.3660   38.3030 C.ar  225  TYR225     -0.0200
    101  CD1       13.9230   51.1010   36.9350 C.ar  225  TYR225     -0.0009
    102  CD2       14.8250   52.0920   38.9200 C.ar  225  TYR225     -0.0009
    103  CE1       15.0420   51.5100   36.2140 C.ar  225  TYR225      0.0417
    104  CE2       15.9540   52.5150   38.1940 C.ar  225  TYR225      0.0417
    105  CZ        16.0540   52.2150   36.8480 C.ar  225  TYR225      0.1957
    106  OH        17.1400   52.6210   36.1010 O.3   225  TYR225     -0.2866
    107  N         12.8150   47.6730   37.8690 N.am  226  LYS226     -0.1980
    108  CA        12.6810   46.8270   36.6900 C.3   226  LYS226      0.1596
    109  C         11.7940   45.6360   37.0520 C.2   226  LYS226      0.2287
    110  O         10.5950   45.8400   37.2920 O.2   226  LYS226     -0.2864
    111  CB        14.0760   46.4590   36.1660 C.3   226  LYS226      0.0298
    112  CG        14.8200   47.7100   35.6700 C.3   226  LYS226      0.0038
    113  CD        16.2440   47.4670   35.2040 C.3   226  LYS226      0.0206
    114  CE        16.8000   48.7020   34.4210 C.3   226  LYS226      0.1093
    115  NZ        18.2620   48.6730   34.5080 N.3   226  LYS226     -0.1314
    116  N         17.5890   51.6590   44.5590 N.3   236  ALA236     -0.1245
    117  CA        18.3660   50.4540   44.3320 C.3   236  ALA236      0.1562
    118  C         18.6640   49.7170   45.6400 C.2   236  ALA236      0.2260
    119  O         18.3010   50.1710   46.7440 O.2   236  ALA236     -0.2867
    120  CB        19.6420   50.8260   43.6080 C.3   236  ALA236      0.0290
@<TRIPOS>BOND
     1    65    64    1
     2    64    62   ar
     3    64    63   ar
     4    62    60   ar
     5    57    56    2
     6    56    55    1
     7    63    61   ar
     8    60    59   ar
     9    61    59   ar
    10    59    58    1
    11    55    54    1
    12    55    58    1
    13    21    22    1
    14    22    23    1
    15    22    25    1
    16    23    24    2
    17    27    29   ar
    18    27    26   ar
    19    29    31   ar
    20    87    88   ar
    21    87    85   ar
    22    25    26    1
    23    88    86   ar
    24    26    28   ar
    25    85    84   ar
    26    31    30   ar
    27    32    33    1
    28    86    84   ar
    29    84    83    1
    30    28    30   ar
    31    83    80    1
    32    50    49    2
    33    33    36    1
    34    33    34    1
    35    51    53    1
    36    51    52    1
    37    51    48    1
    38   114   115    1
    39   114   113    1
    40    39    34   am
    41    39    40    1
    42    49    48    1
    43    36    37    1
    44    36    38    1
    45    82    81    2
    46    34    35    2
    47    80    81    1
    48    80    79    1
    49    41    40    1
    50    41    42    2
    51    47    48    1
    52   113   112    1
    53    43    40    1
    54    43    44    1
    55   112   111    1
    56    46    44   ar
    57    79    76   am
    58    44    45   ar
    59   106   105    1
    60   111   108    1
    61   103   105   ar
    62   103   101   ar
    63    76    77    2
    64    76    75    1
    65    78    75    1
    66   108   109    1
    67   108   107    1
    68   105   104   ar
    69   101   100   ar
    70   109   110    2
    71    98    97    2
    72    75    74    1
    73    73    71   ar
    74    69    68    2
    75   107    97   am
    76    71    70    1
    77    71    72   ar
    78    70    67    1
    79    97    96    1
    80    20    19    1
    81   104   102   ar
    82   100   102   ar
    83   100    99    1
    84    94    93    1
    85    68    67    1
    86    67    66    1
    87    99    96    1
    88    93    90    1
    89    96    95    1
    90    19    16    1
    91    14    12    1
    92    12    13    1
    93    12     9    1
    94    16    15    1
    95    16    17    1
    96    15    10   am
    97    90    89    1
    98    90    91    1
    99    10     9    1
   100    10    11    2
   101    92    91    2
   102     9     8    1
   103    17    18    2
   104     8     3   am
   105     6     5    1
   106     5     7    1
   107     5     2    1
   108     3     2    1
   109     3     4    2
   110     2     1    1
   111   120   117    1
   112   117   116    1
   113   117   118    1
   114   118   119    2
