@<TRIPOS>MOLECULE
tmp/1qzfA01.pdb
 209 201 0 0 0
SMALL
GASTEIGER

@<TRIPOS>ATOM
      1  N        -78.2340  116.7900  136.4750 N.3   255  ARG255     -0.1231
      2  CA       -78.1170  118.2510  136.4720 C.3   255  ARG255      0.1694
      3  C        -79.1340  119.0560  137.3130 C.2   255  ARG255      0.2592
      4  O        -78.8300  120.1690  137.7470 O.2   255  ARG255     -0.2718
      5  CB       -78.0910  118.7690  135.0340 C.3   255  ARG255      0.0321
      6  CG       -78.9880  118.0300  134.0930 C.3   255  ARG255      0.0489
      7  CD       -79.2890  118.9480  132.9280 C.3   255  ARG255      0.2205
      8  NE       -80.7000  118.8780  132.6430 N.pl3 255  ARG255     -0.0865
      9  CZ       -81.6590  119.7910  132.8070 C.cat 255  ARG255      0.5346
     10  NH1      -82.8840  119.4050  132.4660 N.pl3 255  ARG255      0.1354
     11  NH2      -81.4540  121.0370  133.2510 N.pl3 255  ARG255      0.1354
     12  N        -80.3330  118.5220  137.5400 N.am  256  THR256     -0.1953
     13  CA       -81.2960  119.2410  138.3800 C.3   256  THR256      0.1897
     14  C        -80.9650  118.7770  139.7860 C.2   256  THR256      0.2313
     15  O        -80.1140  117.9050  139.9670 O.2   256  THR256     -0.2863
     16  CB       -82.7670  118.8680  138.0780 C.3   256  THR256      0.1794
     17  OG1      -83.1620  117.7540  138.8870 O.3   256  THR256     -0.2208
     18  CG2      -82.9330  118.5170  136.6020 C.3   256  THR256      0.0378
     19  N       -104.6650  108.8170  134.3330 N.3   282  LYS282     -0.1245
     20  CA      -104.3580  110.1560  134.8110 C.3   282  LYS282      0.1561
     21  C       -104.8340  111.1030  133.7230 C.2   282  LYS282      0.2260
     22  O       -104.5480  110.8860  132.5560 O.2   282  LYS282     -0.2867
     23  CB      -102.8390  110.3070  135.0100 C.3   282  LYS282      0.0271
     24  CG      -102.3400  111.7540  135.0580 C.3   282  LYS282      0.0035
     25  CD      -100.8140  111.8810  135.2170 C.3   282  LYS282      0.0206
     26  CE      -100.0460  111.5670  133.9400 C.3   282  LYS282      0.1093
     27  NZ       -98.6470  112.0930  133.9780 N.3   282  LYS282     -0.1314
     28  N       -103.0230  116.6710  129.9950 N.3   285  ALA285     -0.1245
     29  CA      -103.2220  117.9940  129.4050 C.3   285  ALA285      0.1562
     30  C       -102.9450  118.0050  127.9060 C.2   285  ALA285      0.2260
     31  O       -101.9390  118.5420  127.4410 O.2   285  ALA285     -0.2867
     32  CB      -102.3310  119.0150  130.1120 C.3   285  ALA285      0.0290
     33  N       -102.2360  121.6210  125.8930 N.3   288  SER288     -0.1217
     34  CA      -100.8720  122.1270  126.0100 C.3   288  SER288      0.1889
     35  C        -99.9850  121.3550  125.0200 C.2   288  SER288      0.2288
     36  O        -99.1930  121.9520  124.2730 O.2   288  SER288     -0.2866
     37  CB      -100.3670  121.9250  127.4410 C.3   288  SER288      0.2089
     38  OG      -101.2780  122.4790  128.3800 O.3   288  SER288     -0.2183
     39  N        -97.9190  122.8700  121.7430 N.3   292  GLU292     -0.1245
     40  CA       -96.4550  122.7700  121.6900 C.3   292  GLU292      0.1567
     41  C        -96.0340  122.1550  120.3510 C.2   292  GLU292      0.2260
     42  O        -94.9870  122.4990  119.7990 O.2   292  GLU292     -0.2867
     43  CB       -95.9110  121.8880  122.8230 C.3   292  GLU292      0.0388
     44  CG       -94.3720  121.6920  122.7800 C.3   292  GLU292      0.1160
     45  CD       -93.9050  120.3960  123.4430 C.2   292  GLU292      0.3649
     46  OE1      -94.3210  119.3050  122.9850 O.co2 292  GLU292     -0.2457
     47  OE2      -93.1250  120.4610  124.4170 O.co2 292  GLU292     -0.2457
     48  N        -97.3750  126.6560  129.6690 N.3   312  TYR312     -0.1227
     49  CA       -96.1540  126.9900  130.3950 C.3   312  TYR312      0.1736
     50  C        -95.0690  125.9370  130.5220 C.2   312  TYR312      0.2595
     51  O        -94.0940  126.1420  131.2530 O.2   312  TYR312     -0.2718
     52  CB       -96.5450  127.4470  131.8000 C.3   312  TYR312      0.0548
     53  CG       -97.7510  128.3590  131.8200 C.ar  312  TYR312     -0.0200
     54  CD1      -97.6690  129.6690  131.3290 C.ar  312  TYR312     -0.0009
     55  CD2      -98.9810  127.9070  132.3120 C.ar  312  TYR312     -0.0009
     56  CE1      -98.7830  130.5070  131.3270 C.ar  312  TYR312      0.0417
     57  CE2     -100.1030  128.7370  132.3150 C.ar  312  TYR312      0.0417
     58  CZ       -99.9970  130.0350  131.8230 C.ar  312  TYR312      0.1957
     59  OH      -101.1010  130.8600  131.8330 O.3   312  TYR312     -0.2866
     60  N        -95.2140  124.8150  129.8320 N.am  313  ILE313     -0.1966
     61  CA       -94.2130  123.7640  129.9560 C.3   313  ILE313      0.1727
     62  C        -92.7750  124.2370  129.7040 C.2   313  ILE313      0.2616
     63  O        -91.8320  123.6970  130.3090 O.2   313  ILE313     -0.2715
     64  CB       -94.5570  122.5730  129.0430 C.3   313  ILE313      0.0290
     65  CG1      -94.8430  123.0680  127.6220 C.3   313  ILE313      0.0022
     66  CG2      -95.7670  121.8250  129.6160 C.3   313  ILE313      0.0023
     67  CD1      -95.2950  121.9630  126.6700 C.3   313  ILE313      0.0001
     68  N        -92.6010  125.2460  128.8430 N.am  314  TRP314     -0.1974
     69  CA       -91.2540  125.7580  128.5600 C.3   314  TRP314      0.1640
     70  C        -90.8480  127.0170  129.3280 C.2   314  TRP314      0.2290
     71  O        -89.8480  127.6620  128.9910 O.2   314  TRP314     -0.2864
     72  CB       -91.0630  126.0110  127.0640 C.3   314  TRP314      0.0576
     73  CG       -90.9370  124.7480  126.2840 C.ar  314  TRP314      0.0006
     74  CD1      -91.9470  124.0440  125.6850 C.ar  314  TRP314      0.0946
     75  CD2      -89.7420  123.9860  126.0790 C.ar  314  TRP314      0.0152
     76  NE1      -91.4530  122.8880  125.1220 N.ar  314  TRP314     -0.2442
     77  CE2      -90.1030  122.8260  125.3510 C.ar  314  TRP314      0.0810
     78  CE3      -88.3980  124.1670  126.4430 C.ar  314  TRP314      0.0012
     79  CZ2      -89.1710  121.8520  124.9820 C.ar  314  TRP314      0.0191
     80  CZ3      -87.4700  123.1960  126.0740 C.ar  314  TRP314      0.0001
     81  CH2      -87.8640  122.0530  125.3510 C.ar  314  TRP314      0.0015
     82  N        -87.4330  126.0850  131.7830 N.3   317  ASN317     -0.1240
     83  CA       -86.2110  126.0720  130.9920 C.3   317  ASN317      0.1653
     84  C        -86.0710  127.3160  130.1110 C.2   317  ASN317      0.2266
     85  O        -85.1520  127.4070  129.2830 O.2   317  ASN317     -0.2867
     86  CB       -86.1530  124.7890  130.1510 C.3   317  ASN317      0.1155
     87  CG       -86.0280  123.5330  131.0170 C.2   317  ASN317      0.2627
     88  OD1      -86.9910  123.1110  131.6670 O.2   317  ASN317     -0.2716
     89  ND2      -84.8280  122.9440  131.0440 N.am  317  ASN317     -0.0877
     90  N        -82.2250  123.7360  126.2020 N.3   397  LEU397     -0.1245
     91  CA       -82.2910  122.3470  126.6050 C.3   397  LEU397      0.1561
     92  C        -81.9870  121.4550  125.4060 C.2   397  LEU397      0.2260
     93  O        -82.5590  121.6300  124.3220 O.2   397  LEU397     -0.2867
     94  CB       -83.6930  122.0640  127.1460 C.3   397  LEU397      0.0270
     95  CG       -83.8810  120.8350  128.0340 C.3   397  LEU397      0.0019
     96  CD1      -82.8650  120.8700  129.1890 C.3   397  LEU397      0.0001
     97  CD2      -85.3270  120.8080  128.5680 C.3   397  LEU397      0.0001
     98  N        -84.6340  116.1630  123.7270 N.3   400  CYS400     -0.1221
     99  CA       -84.9200  114.9280  124.4340 C.3   400  CYS400      0.1808
    100  C        -85.4460  113.9220  123.4130 C.2   400  CYS400      0.2601
    101  O        -84.9500  112.7970  123.3460 O.2   400  CYS400     -0.2717
    102  CB       -85.9150  115.1850  125.5610 C.3   400  CYS400      0.0970
    103  SG       -85.1200  116.0240  126.9890 S.3   400  CYS400     -0.0800
    104  N        -86.4440  114.3200  122.6170 N.am  401  HIS401     -0.1975
    105  CA       -86.9400  113.4440  121.5600 C.3   401  HIS401      0.1656
    106  C        -86.0380  113.7780  120.3920 C.2   401  HIS401      0.2291
    107  O        -86.3280  114.6360  119.5620 O.2   401  HIS401     -0.2864
    108  CB       -88.4220  113.6790  121.2290 C.3   401  HIS401      0.0771
    109  CG       -88.8380  115.1150  121.1990 C.ar  401  HIS401      0.0820
    110  ND1      -89.1780  115.7660  120.0320 N.ar  401  HIS401     -0.2267
    111  CD2      -89.0600  115.9990  122.2030 C.ar  401  HIS401      0.1154
    112  CE1      -89.5960  116.9860  120.3200 C.ar  401  HIS401      0.1986
    113  NE2      -89.5350  117.1530  121.6300 N.ar  401  HIS401     -0.2212
    114  N        -88.5530  111.5110  131.2180 N.3   424  ASP424     -0.1239
    115  CA       -89.1290  111.6520  132.5440 C.3   424  ASP424      0.1674
    116  C        -90.4650  110.9020  132.4850 C.2   424  ASP424      0.2266
    117  O        -91.4690  111.4530  132.0390 O.2   424  ASP424     -0.2867
    118  CB       -89.3530  113.1350  132.8410 C.3   424  ASP424      0.1410
    119  CG       -90.1420  113.3710  134.1140 C.2   424  ASP424      0.3668
    120  OD1      -90.3370  114.5530  134.4650 O.co2 424  ASP424     -0.2456
    121  OD2      -90.5680  112.3890  134.7630 O.co2 424  ASP424     -0.2456
    122  N        -93.6190  113.0560  134.0220 N.3   427  LEU427     -0.1231
    123  CA       -94.1740  114.2080  133.3400 C.3   427  LEU427      0.1693
    124  C        -94.0140  114.1180  131.8370 C.2   427  LEU427      0.2592
    125  O        -94.9930  114.2270  131.1020 O.2   427  LEU427     -0.2718
    126  CB       -93.5070  115.4800  133.8560 C.3   427  LEU427      0.0284
    127  CG       -94.3510  116.3780  134.7620 C.3   427  LEU427      0.0019
    128  CD1      -95.2630  115.5340  135.6160 C.3   427  LEU427      0.0001
    129  CD2      -93.4390  117.2410  135.6260 C.3   427  LEU427      0.0001
    130  N        -92.7850  113.9090  131.3800 N.am  428  GLY428     -0.1957
    131  CA       -92.5320  113.8340  129.9570 C.3   428  GLY428      0.1869
    132  C        -93.3340  112.8130  129.1670 C.2   428  GLY428      0.2309
    133  O        -94.2420  113.1620  128.4120 O.2   428  GLY428     -0.2863
    134  N        -95.9950  110.8470  129.2020 N.3   430  PRO430     -0.2102
    135  CA       -97.3990  111.0470  128.8300 C.3   430  PRO430      0.1504
    136  C        -97.5430  112.0410  127.6870 C.2   430  PRO430      0.2576
    137  O        -98.2200  111.7640  126.7020 O.2   430  PRO430     -0.2718
    138  CB       -98.0300  111.5440  130.1210 C.3   430  PRO430      0.0282
    139  CG       -97.2320  110.8290  131.1610 C.3   430  PRO430      0.0208
    140  CD       -95.8150  110.9760  130.6570 C.3   430  PRO430      0.0893
    141  N        -96.8950  113.1920  127.8250 N.am  431  PHE431     -0.1963
    142  CA       -96.9350  114.2290  126.8010 C.3   431  PHE431      0.1771
    143  C        -96.3070  113.6960  125.5400 C.2   431  PHE431      0.2619
    144  O        -96.8880  113.7320  124.4610 O.2   431  PHE431     -0.2715
    145  CB       -96.1210  115.4430  127.2350 C.3   431  PHE431      0.0574
    146  CG       -96.9220  116.5110  127.8960 C.ar  431  PHE431     -0.0200
    147  CD1      -97.6560  116.2420  129.0510 C.ar  431  PHE431     -0.0042
    148  CD2      -96.9240  117.7980  127.3740 C.ar  431  PHE431     -0.0042
    149  CE1      -98.3840  117.2440  129.6880 C.ar  431  PHE431     -0.0003
    150  CE2      -97.6450  118.8150  127.9930 C.ar  431  PHE431     -0.0003
    151  CZ       -98.3800  118.5380  129.1580 C.ar  431  PHE431     -0.0000
    152  N        -95.0900  113.2060  125.7000 N.am  432  ASN432     -0.1972
    153  CA       -94.3250  112.6710  124.5930 C.3   432  ASN432      0.1688
    154  C        -95.1160  111.6860  123.7200 C.2   432  ASN432      0.2292
    155  O        -95.1250  111.8050  122.4950 O.2   432  ASN432     -0.2864
    156  CB       -93.0650  112.0060  125.1410 C.3   432  ASN432      0.1181
    157  CG       -91.9750  112.9980  125.4310 C.2   432  ASN432      0.2629
    158  OD1      -91.8710  114.0300  124.7550 O.2   432  ASN432     -0.2716
    159  ND2      -91.1410  112.6940  126.4330 N.am  432  ASN432     -0.0877
    160  N        -88.2820  110.6870  138.5910 N.3   464  TYR464     -0.1241
    161  CA       -87.7690  111.6340  139.5740 C.3   464  TYR464      0.1605
    162  C        -88.3160  111.2170  140.9340 C.2   464  TYR464      0.2264
    163  O        -89.5040  110.9730  141.0890 O.2   464  TYR464     -0.2867
    164  CB       -88.1870  113.0620  139.2030 C.3   464  TYR464      0.0534
    165  CG       -87.3390  113.6690  138.0980 C.ar  464  TYR464     -0.0201
    166  CD1      -86.1200  114.2850  138.3880 C.ar  464  TYR464     -0.0009
    167  CD2      -87.7190  113.5680  136.7550 C.ar  464  TYR464     -0.0009
    168  CE1      -85.2930  114.7810  137.3680 C.ar  464  TYR464      0.0417
    169  CE2      -86.8970  114.0590  135.7260 C.ar  464  TYR464      0.0417
    170  CZ       -85.6850  114.6590  136.0450 C.ar  464  TYR464      0.1957
    171  OH       -84.8460  115.1020  135.0510 O.3   464  TYR464     -0.2866
    172  N       -103.2070  113.9970  138.2270 N.3   513  ILE513     -0.1231
    173  CA      -102.2550  113.8010  139.3210 C.3   513  ILE513      0.1692
    174  C       -101.1370  114.8310  139.2480 C.2   513  ILE513      0.2592
    175  O       -100.3140  114.7920  138.3350 O.2   513  ILE513     -0.2718
    176  CB      -101.5950  112.4110  139.2700 C.3   513  ILE513      0.0266
    177  CG1     -102.6450  111.3210  139.4500 C.3   513  ILE513      0.0019
    178  CG2     -100.5490  112.2990  140.3540 C.3   513  ILE513      0.0020
    179  CD1     -102.1180  109.9340  139.1880 C.3   513  ILE513      0.0001
    180  N       -101.0970  115.7320  140.2240 N.am  514  LYS514     -0.1966
    181  CA      -100.0890  116.7860  140.2650 C.3   514  LYS514      0.1728
    182  C        -98.6600  116.2820  140.4710 C.2   514  LYS514      0.2616
    183  O        -98.3960  115.4880  141.3780 O.2   514  LYS514     -0.2715
    184  CB      -100.4410  117.7840  141.3710 C.3   514  LYS514      0.0311
    185  CG      -100.6280  119.2080  140.8780 C.3   514  LYS514      0.0038
    186  CD       -99.3240  119.8050  140.3170 C.3   514  LYS514      0.0206
    187  CE       -98.3360  120.1510  141.4290 C.3   514  LYS514      0.1093
    188  NZ       -98.9540  121.0710  142.4310 N.3   514  LYS514     -0.1314
    189  N        -97.7460  116.7480  139.6230 N.am  515  MET515     -0.1977
    190  CA       -96.3330  116.3750  139.7090 C.3   515  MET515      0.1605
    191  C        -95.4860  117.5690  139.3100 C.2   515  MET515      0.2287
    192  O        -95.7920  118.2430  138.3280 O.2   515  MET515     -0.2864
    193  CB       -96.0220  115.2080  138.7800 C.3   515  MET515      0.0413
    194  CG       -96.5890  113.8790  139.2280 C.3   515  MET515      0.0598
    195  SD       -96.1350  112.5430  138.0970 S.3   515  MET515     -0.1393
    196  CE       -97.5540  112.5230  136.9990 C.3   515  MET515      0.0692
    197  N        -92.1340  119.5410  137.8830 N.3   517  MET517     -0.1230
    198  CA       -90.9980  119.4360  136.9600 C.3   517  MET517      0.1702
    199  C        -89.6830  119.8510  137.6070 C.2   517  MET517      0.2592
    200  O        -89.6470  120.7450  138.4620 O.2   517  MET517     -0.2718
    201  CB       -91.2280  120.3070  135.7100 C.3   517  MET517      0.0401
    202  CG       -89.9870  120.4480  134.8050 C.3   517  MET517      0.0596
    203  SD       -90.3550  121.0070  133.0860 S.3   517  MET517     -0.1393
    204  CE       -89.6410  122.7200  133.0620 C.3   517  MET517      0.0692
    205  N        -88.6090  119.1790  137.2020 N.am  518  ALA518     -0.1980
    206  CA       -87.2670  119.4960  137.6990 C.3   518  ALA518      0.1597
    207  C        -86.6310  120.3690  136.5990 C.2   518  ALA518      0.2287
    208  O        -86.5630  119.9550  135.4240 O.2   518  ALA518     -0.2864
    209  CB       -86.4480  118.2010  137.9220 C.3   518  ALA518      0.0319
@<TRIPOS>BOND
     1   107   106    2
     2    42    41    2
     3   110   112   ar
     4   110   109   ar
     5   112   113   ar
     6    41    40    1
     7   106   105    1
     8   109   108    1
     9   109   111   ar
    10   108   105    1
    11   105   104    1
    12   113   111   ar
    13    40    39    1
    14    40    43    1
    15   155   154    2
    16   104   100   am
    17    44    43    1
    18    44    45    1
    19    46    45   ar
    20   101   100    2
    21   100    99    1
    22    45    47   ar
    23   154   153    1
    24    98    99    1
    25    36    35    2
    26    93    92    2
    27    99   102    1
    28   144   143    2
    29   153   156    1
    30   153   152    1
    31   158   157    2
    32    79    77   ar
    33    79    81   ar
    34    35    34    1
    35    76    77   ar
    36    76    74   ar
    37   156   157    1
    38    77    75   ar
    39    81    80   ar
    40    92    91    1
    41   157   159   am
    42   143   152   am
    43   143   142    1
    44   102   103    1
    45    74    73   ar
    46    33    34    1
    47    34    37    1
    48    80    78   ar
    49    75    73   ar
    50    75    78   ar
    51    90    91    1
    52    73    72    1
    53    91    94    1
    54    67    65    1
    55   137   136    2
    56   142   145    1
    57   142   141    1
    58    72    69    1
    59    94    95    1
    60   145   146    1
    61   148   146   ar
    62   148   150   ar
    63    37    38    1
    64    31    30    2
    65    65    64    1
    66   136   141   am
    67   136   135    1
    68   146   147   ar
    69    30    29    1
    70   150   151   ar
    71    95    97    1
    72    95    96    1
    73   133   132    2
    74    69    68    1
    75    69    70    1
    76   135   134    1
    77   135   138    1
    78    68    62   am
    79    71    70    2
    80    64    66    1
    81    64    61    1
    82   147   149   ar
    83   151   149   ar
    84   132   131    1
    85   134   140    1
    86    85    84    2
    87    29    28    1
    88    29    32    1
    89    48    49    1
    90    62    61    1
    91    62    63    2
    92    60    61    1
    93    60    50   am
    94   131   130    1
    95    84    83    1
    96   138   139    1
    97    86    83    1
    98    86    87    1
    99    49    50    1
   100    49    52    1
   101    50    51    2
   102   140   139    1
   103    83    82    1
   104    87    89   am
   105    87    88    2
   106   125   124    2
   107   114   115    1
   108    56    54   ar
   109    56    58   ar
   110    54    53   ar
   111   130   124   am
   112    52    53    1
   113    53    55   ar
   114    58    59    1
   115    58    57   ar
   116   124   123    1
   117   117   116    2
   118    55    57   ar
   119    10     9    1
   120   116   115    1
   121   115   118    1
   122    22    21    2
   123     8     9    2
   124     8     7    1
   125     9    11    1
   126   118   119    1
   127     7     6    1
   128   204   203    1
   129   203   202    1
   130   123   126    1
   131   123   122    1
   132    21    20    1
   133   126   127    1
   134    26    27    1
   135    26    25    1
   136     6     5    1
   137   119   120   ar
   138   119   121   ar
   139    19    20    1
   140   127   128    1
   141   127   129    1
   142   202   201    1
   143    20    23    1
   144    23    24    1
   145     5     2    1
   146   171   170    1
   147    24    25    1
   148   208   207    2
   149   201   198    1
   150   169   170   ar
   151   169   167   ar
   152   170   168   ar
   153     2     1    1
   154     2     3    1
   155   207   206    1
   156    18    16    1
   157   167   165   ar
   158   198   199    1
   159   198   197    1
   160   196   195    1
   161   205   199   am
   162   205   206    1
   163     3    12   am
   164     3     4    2
   165   168   166   ar
   166    12    13    1
   167   199   200    2
   168   206   209    1
   169    16    13    1
   170    16    17    1
   171   195   194    1
   172   165   166   ar
   173   165   164    1
   174   172   173    1
   175   192   191    2
   176   175   174    2
   177    13    14    1
   178   160   161    1
   179   193   194    1
   180   193   190    1
   181   179   177    1
   182   164   161    1
   183   174   173    1
   184   174   180   am
   185   176   173    1
   186   176   177    1
   187   176   178    1
   188   191   190    1
   189   161   162    1
   190   189   190    1
   191   189   182   am
   192    14    15    2
   193   180   181    1
   194   181   182    1
   195   181   184    1
   196   186   185    1
   197   186   187    1
   198   182   183    2
   199   185   184    1
   200   162   163    2
   201   187   188    1
