@<TRIPOS>MOLECULE
tmp/1qzfA02.pdb
 189 181 0 0 0
SMALL
GASTEIGER

@<TRIPOS>ATOM
      1  N       -122.0290   87.6760  129.9340 N.3     7  VAL7       -0.1231
      2  CA      -121.5810   88.4010  128.7660 C.3     7  VAL7        0.1692
      3  C       -122.3510   89.6930  128.8290 C.2     7  VAL7        0.2592
      4  O       -123.5720   89.6850  128.8330 O.2     7  VAL7       -0.2718
      5  CB      -121.9360   87.6950  127.4780 C.3     7  VAL7        0.0266
      6  CG1     -121.3450   88.4540  126.3130 C.3     7  VAL7        0.0020
      7  CG2     -121.4240   86.2850  127.5130 C.3     7  VAL7        0.0020
      8  N       -121.6450   90.8070  128.8970 N.am    8  VAL8       -0.1966
      9  CA      -122.3200   92.0830  128.9750 C.3     8  VAL8        0.1727
     10  C       -121.4630   93.2010  128.4120 C.2     8  VAL8        0.2616
     11  O       -120.2370   93.0920  128.3120 O.2     8  VAL8       -0.2715
     12  CB      -122.7010   92.4080  130.4450 C.3     8  VAL8        0.0290
     13  CG1     -121.4530   92.4540  131.3010 C.3     8  VAL8        0.0023
     14  CG2     -123.4570   93.7220  130.5270 C.3     8  VAL8        0.0023
     15  N       -122.1410   94.2710  128.0280 N.am    9  ALA9       -0.1977
     16  CA      -121.4980   95.4470  127.4900 C.3     9  ALA9        0.1597
     17  C       -122.0600   96.6270  128.2750 C.2     9  ALA9        0.2287
     18  O       -123.2590   96.8920  128.2230 O.2     9  ALA9       -0.2864
     19  CB      -121.8210   95.5780  126.0180 C.3     9  ALA9        0.0319
     20  N       -130.1870   98.7990  123.5210 N.3    23  LEU23      -0.1245
     21  CA      -128.7920   98.9530  123.8730 C.3    23  LEU23       0.1561
     22  C       -128.5740  100.4330  123.6300 C.2    23  LEU23       0.2260
     23  O       -129.0770  100.9840  122.6590 O.2    23  LEU23      -0.2867
     24  CB      -127.9150   98.1100  122.9580 C.3    23  LEU23       0.0270
     25  CG      -128.0990   96.6080  123.1620 C.3    23  LEU23       0.0019
     26  CD1     -127.3800   95.8510  122.0730 C.3    23  LEU23       0.0001
     27  CD2     -127.5780   96.2160  124.5260 C.3    23  LEU23       0.0001
     28  N       -126.3290  102.0010  122.3570 N.3    25  TRP25      -0.1241
     29  CA      -125.3660  102.2480  121.2930 C.3    25  TRP25       0.1605
     30  C       -125.4500  101.0820  120.3260 C.2    25  TRP25       0.2264
     31  O       -126.0650  100.0750  120.6360 O.2    25  TRP25      -0.2867
     32  CB      -123.9620  102.3160  121.8950 C.3    25  TRP25       0.0550
     33  CG      -123.6280  101.0690  122.6610 C.ar   25  TRP25       0.0003
     34  CD1     -123.4820   99.8110  122.1500 C.ar   25  TRP25       0.0946
     35  CD2     -123.5360  100.9340  124.0770 C.ar   25  TRP25       0.0152
     36  NE1     -123.3220   98.9030  123.1570 N.ar   25  TRP25      -0.2442
     37  CE2     -123.3500   99.5640  124.3550 C.ar   25  TRP25       0.0810
     38  CE3     -123.5980  101.8370  125.1430 C.ar   25  TRP25       0.0012
     39  CZ2     -123.2260   99.0710  125.6550 C.ar   25  TRP25       0.0191
     40  CZ3     -123.4750  101.3450  126.4400 C.ar   25  TRP25       0.0001
     41  CH2     -123.2910   99.9710  126.6810 C.ar   25  TRP25       0.0015
     42  N       -121.6230   96.7610  115.9230 N.3    28  SER28      -0.1217
     43  CA      -121.7760   95.4160  115.3780 C.3    28  SER28       0.1889
     44  C       -120.6820   94.4500  115.8210 C.2    28  SER28       0.2288
     45  O       -120.9460   93.2840  116.0720 O.2    28  SER28      -0.2866
     46  CB      -121.8650   95.4620  113.8460 C.3    28  SER28       0.2089
     47  OG      -120.7830   96.1680  113.2790 O.3    28  SER28      -0.2183
     48  N       -119.2670   94.1880  118.5950 N.3    30  ASP30      -0.1225
     49  CA      -119.5730   93.6550  119.9160 C.3    30  ASP30       0.1805
     50  C       -120.6880   92.6330  119.8470 C.2    30  ASP30       0.2598
     51  O       -120.7150   91.6910  120.6290 O.2    30  ASP30      -0.2718
     52  CB      -119.9650   94.7710  120.8870 C.3    30  ASP30       0.1424
     53  CG      -120.4200   94.2360  122.2390 C.2    30  ASP30       0.3668
     54  OD1     -119.6990   93.4010  122.8250 O.co2  30  ASP30      -0.2456
     55  OD2     -121.4940   94.6570  122.7190 O.co2  30  ASP30      -0.2456
     56  N       -121.6280   92.8260  118.9310 N.am   31  LEU31      -0.1966
     57  CA      -122.6990   91.8600  118.7900 C.3    31  LEU31       0.1728
     58  C       -122.0630   90.6190  118.1980 C.2    31  LEU31       0.2616
     59  O       -122.3680   89.4960  118.5770 O.2    31  LEU31      -0.2715
     60  CB      -123.7820   92.3830  117.8580 C.3    31  LEU31       0.0311
     61  CG      -124.7790   93.3540  118.4830 C.3    31  LEU31       0.0022
     62  CD1     -125.6700   93.9330  117.4020 C.3    31  LEU31       0.0001
     63  CD2     -125.6080   92.6380  119.5150 C.3    31  LEU31       0.0001
     64  N       -121.1510   90.8350  117.2660 N.am   32  LYS32      -0.1963
     65  CA      -120.4580   89.7360  116.6310 C.3    32  LYS32       0.1728
     66  C       -119.6700   88.9850  117.7060 C.2    32  LYS32       0.2616
     67  O       -119.5510   87.7600  117.6570 O.2    32  LYS32      -0.2715
     68  CB      -119.5240   90.2740  115.5460 C.3    32  LYS32       0.0311
     69  CG      -119.2880   89.2840  114.4400 C.3    32  LYS32       0.0038
     70  CD      -118.5090   89.8830  113.2770 C.3    32  LYS32       0.0206
     71  CE      -118.6140   89.0070  112.0030 C.3    32  LYS32       0.1093
     72  NZ      -118.0950   87.5930  112.1270 N.3    32  LYS32      -0.1314
     73  N       -119.1420   89.7260  118.6790 N.am   33  PHE33      -0.1960
     74  CA      -118.3850   89.1220  119.7660 C.3    33  PHE33       0.1771
     75  C       -119.3210   88.2610  120.5830 C.2    33  PHE33       0.2620
     76  O       -119.0770   87.0760  120.7940 O.2    33  PHE33      -0.2715
     77  CB      -117.7760   90.1910  120.6720 C.3    33  PHE33       0.0574
     78  CG      -117.0260   89.6310  121.8400 C.ar   33  PHE33      -0.0200
     79  CD1     -115.8910   88.8560  121.6470 C.ar   33  PHE33      -0.0042
     80  CD2     -117.4680   89.8500  123.1300 C.ar   33  PHE33      -0.0042
     81  CE1     -115.2090   88.3030  122.7320 C.ar   33  PHE33      -0.0003
     82  CE2     -116.7940   89.3020  124.2160 C.ar   33  PHE33      -0.0003
     83  CZ      -115.6630   88.5280  124.0140 C.ar   33  PHE33      -0.0000
     84  N       -120.4000   88.8710  121.0490 N.am   34  PHE34      -0.1960
     85  CA      -121.3750   88.1550  121.8380 C.3    34  PHE34       0.1771
     86  C       -121.7320   86.8640  121.1370 C.2    34  PHE34       0.2620
     87  O       -121.8210   85.8180  121.7640 O.2    34  PHE34      -0.2715
     88  CB      -122.6280   89.0000  122.0230 C.3    34  PHE34       0.0574
     89  CG      -123.7860   88.2450  122.6020 C.ar   34  PHE34      -0.0200
     90  CD1     -124.5460   87.4000  121.8080 C.ar   34  PHE34      -0.0042
     91  CD2     -124.1060   88.3690  123.9500 C.ar   34  PHE34      -0.0042
     92  CE1     -125.6010   86.6920  122.3440 C.ar   34  PHE34      -0.0003
     93  CE2     -125.1600   87.6650  124.4960 C.ar   34  PHE34      -0.0003
     94  CZ      -125.9100   86.8240  123.6920 C.ar   34  PHE34      -0.0000
     95  N       -121.9260   86.9400  119.8290 N.am   35  SER35      -0.1950
     96  CA      -122.2930   85.7650  119.0540 C.3    35  SER35       0.1924
     97  C       -121.1970   84.7110  119.0330 C.2    35  SER35       0.2314
     98  O       -121.4660   83.5200  119.2260 O.2    35  SER35      -0.2863
     99  CB      -122.6380   86.1660  117.6260 C.3    35  SER35       0.2116
    100  OG      -123.0250   85.0320  116.8790 O.3    35  SER35      -0.2180
    101  N       -131.6730   84.6150  130.0670 N.3    52  MET52      -0.1245
    102  CA      -131.9910   86.0390  129.9930 C.3    52  MET52       0.1570
    103  C       -133.3410   86.3910  130.6050 C.2    52  MET52       0.2261
    104  O       -134.2590   85.5780  130.6280 O.2    52  MET52      -0.2867
    105  CB      -131.9550   86.5150  128.5420 C.3    52  MET52       0.0387
    106  CG      -132.8580   85.7220  127.6010 C.3    52  MET52       0.0595
    107  SD      -132.8870   86.3780  125.9010 S.3    52  MET52      -0.1393
    108  CE      -131.3530   85.7640  125.2430 C.3    52  MET52       0.0692
    109  N       -135.2940   91.2690  128.2630 N.3    56  THR56      -0.1218
    110  CA      -134.2500   91.1320  127.2500 C.3    56  THR56       0.1862
    111  C       -134.7890   90.2640  126.1250 C.2    56  THR56       0.2287
    112  O       -134.5170   90.5020  124.9520 O.2    56  THR56      -0.2866
    113  CB      -132.9690   90.4990  127.8380 C.3    56  THR56       0.1770
    114  OG1     -132.3660   91.4240  128.7480 O.3    56  THR56      -0.2211
    115  CG2     -131.9700   90.1780  126.7410 C.3    56  THR56       0.0375
    116  N       -136.4760   92.3000  123.8690 N.3    59  SER59      -0.1202
    117  CA      -135.4890   93.0790  123.1240 C.3    59  SER59       0.2020
    118  C       -134.9320   92.3040  121.9360 C.2    59  SER59       0.2618
    119  O       -134.6810   92.8760  120.8790 O.2    59  SER59      -0.2717
    120  CB      -134.3450   93.4880  124.0490 C.3    59  SER59       0.2103
    121  OG      -134.8360   94.2080  125.1620 O.3    59  SER59      -0.2182
    122  N       -134.7290   91.0040  122.1210 N.am   60  ILE60      -0.1979
    123  CA      -134.2260   90.1280  121.0650 C.3    60  ILE60       0.1595
    124  C       -135.3010   89.9540  119.9790 C.2    60  ILE60       0.2287
    125  O       -135.0160   89.5110  118.8630 O.2    60  ILE60      -0.2864
    126  CB      -133.8720   88.7290  121.6440 C.3    60  ILE60       0.0276
    127  CG1     -132.6180   88.8260  122.5050 C.3    60  ILE60       0.0022
    128  CG2     -133.6680   87.7090  120.5160 C.3    60  ILE60       0.0022
    129  CD1     -131.3340   88.6200  121.7410 C.3    60  ILE60       0.0001
    130  N       -131.8480   82.3410  118.9330 N.3    65  LEU65      -0.1245
    131  CA      -130.5060   82.6460  118.4470 C.3    65  LEU65       0.1561
    132  C       -129.9740   81.3300  117.8950 C.2    65  LEU65       0.2260
    133  O       -129.9450   80.3130  118.5890 O.2    65  LEU65      -0.2867
    134  CB      -129.6050   83.1380  119.5850 C.3    65  LEU65       0.0270
    135  CG      -129.9040   84.5110  120.1890 C.3    65  LEU65       0.0019
    136  CD1     -129.0360   84.7410  121.3960 C.3    65  LEU65       0.0001
    137  CD2     -129.6510   85.5840  119.1620 C.3    65  LEU65       0.0001
    138  N       -128.0280   77.9310  119.3480 N.3    68  ARG68      -0.1245
    139  CA      -128.0780   77.9870  120.7930 C.3    68  ARG68       0.1563
    140  C       -129.4740   77.7430  121.3600 C.2    68  ARG68       0.2260
    141  O       -130.4270   77.4880  120.6280 O.2    68  ARG68      -0.2867
    142  CB      -127.5350   79.3320  121.2560 C.3    68  ARG68       0.0307
    143  CG      -126.0430   79.4590  121.0930 C.3    68  ARG68       0.0489
    144  CD      -125.6630   80.8920  120.8490 C.3    68  ARG68       0.2205
    145  NE      -126.0970   81.3200  119.5240 N.pl3  68  ARG68      -0.0865
    146  CZ      -125.9070   82.5370  119.0290 C.cat  68  ARG68       0.5346
    147  NH1     -125.2890   83.4640  119.7560 N.pl3  68  ARG68       0.1354
    148  NH2     -126.3160   82.8210  117.7990 N.pl3  68  ARG68       0.1354
    149  N       -126.9450   85.9170  129.8530 N.3   111  CYS111     -0.1221
    150  CA      -126.9960   86.9600  128.8460 C.3   111  CYS111      0.1808
    151  C       -127.7460   88.2480  129.0940 C.2   111  CYS111      0.2601
    152  O       -128.1420   88.9090  128.1430 O.2   111  CYS111     -0.2717
    153  CB      -127.4850   86.3620  127.5370 C.3   111  CYS111      0.0970
    154  SG      -126.4370   85.0310  126.9540 S.3   111  CYS111     -0.0800
    155  N       -127.9840   88.6300  130.3330 N.am  112  GLY112     -0.1957
    156  CA      -128.6370   89.9030  130.4510 C.3   112  GLY112      0.1869
    157  C       -129.9070   90.1300  131.2080 C.2   112  GLY112      0.2309
    158  O       -130.7600   89.2510  131.3840 O.2   112  GLY112     -0.2863
    159  N       -128.6820   89.7890  135.9020 N.3   117  TYR117     -0.1241
    160  CA      -127.2540   89.8840  136.1750 C.3   117  TYR117      0.1605
    161  C       -127.0670   89.9270  137.6880 C.2   117  TYR117      0.2264
    162  O       -126.3760   89.0970  138.2780 O.2   117  TYR117     -0.2867
    163  CB      -126.6600   91.1580  135.5660 C.3   117  TYR117      0.0534
    164  CG      -126.4150   91.1150  134.0750 C.ar  117  TYR117     -0.0201
    165  CD1     -125.8360   90.0040  133.4730 C.ar  117  TYR117     -0.0009
    166  CD2     -126.7020   92.2170  133.2790 C.ar  117  TYR117     -0.0009
    167  CE1     -125.5460   89.9940  132.1160 C.ar  117  TYR117      0.0417
    168  CE2     -126.4130   92.2200  131.9270 C.ar  117  TYR117      0.0417
    169  CZ      -125.8340   91.1090  131.3500 C.ar  117  TYR117      0.1957
    170  OH      -125.5280   91.1250  130.0080 O.3   117  TYR117     -0.2866
    171  N       -117.6000   88.3040  130.9020 N.3   130  TYR130     -0.1241
    172  CA      -117.0460   88.8380  129.6600 C.3   130  TYR130      0.1605
    173  C       -117.6330   90.2380  129.5930 C.2   130  TYR130      0.2264
    174  O       -118.8170   90.4080  129.3090 O.2   130  TYR130     -0.2867
    175  CB      -117.5060   88.0290  128.4470 C.3   130  TYR130      0.0534
    176  CG      -116.8480   86.6790  128.3050 C.ar  130  TYR130     -0.0201
    177  CD1     -117.4230   85.5350  128.8550 C.ar  130  TYR130     -0.0009
    178  CD2     -115.6490   86.5440  127.6130 C.ar  130  TYR130     -0.0009
    179  CE1     -116.8160   84.2830  128.7130 C.ar  130  TYR130      0.0417
    180  CE2     -115.0260   85.3020  127.4680 C.ar  130  TYR130      0.0417
    181  CZ      -115.6120   84.1740  128.0170 C.ar  130  TYR130      0.1957
    182  OH      -114.9980   82.9490  127.8660 O.3   130  TYR130     -0.2866
    183  N       -117.6880   94.0000  127.9390 N.3   132  THR132     -0.1218
    184  CA      -117.2840   94.9050  126.8780 C.3   132  THR132      0.1862
    185  C       -117.4910   96.2940  127.4500 C.2   132  THR132      0.2287
    186  O       -118.6050   96.6600  127.8170 O.2   132  THR132     -0.2866
    187  CB      -118.1390   94.7660  125.6400 C.3   132  THR132      0.1770
    188  OG1     -118.1720   93.3940  125.2420 O.3   132  THR132     -0.2211
    189  CG2     -117.5550   95.5920  124.5270 C.3   132  THR132      0.0375
@<TRIPOS>BOND
     1    71    72    1
     2    71    70    1
     3    70    69    1
     4    47    46    1
     5    46    43    1
     6    69    68    1
     7    43    44    1
     8    43    42    1
     9    68    65    1
    10    44    45    2
    11    65    64    1
    12    65    66    1
    13   100    99    1
    14    64    58   am
    15    62    61    1
    16    99    96    1
    17    67    66    2
    18    66    73   am
    19   148   146    1
    20    60    61    1
    21    60    57    1
    22   132   131    1
    23   132   133    2
    24    58    59    2
    25    58    57    1
    26   131   130    1
    27   131   134    1
    28    61    63    1
    29    48    49    1
    30    73    74    1
    31    57    56    1
    32   125   124    2
    33    56    50   am
    34   146   145    2
    35   146   147    1
    36    97    96    1
    37    97    98    2
    38    96    95    1
    39   137   135    1
    40   138   139    1
    41   145   144    1
    42   134   135    1
    43    74    75    1
    44    74    77    1
    45    95    86   am
    46    50    49    1
    47    50    51    2
    48    49    52    1
    49   124   123    1
    50   135   136    1
    51    30    31    2
    52    30    29    1
    53   128   126    1
    54    75    76    2
    55    75    84   am
    56   141   140    2
    57    77    78    1
    58   139   142    1
    59   139   140    1
    60   144   143    1
    61   119   118    2
    62    52    53    1
    63    84    85    1
    64   123   126    1
    65   123   122    1
    66   143   142    1
    67    86    87    2
    68    86    85    1
    69    29    32    1
    70    29    28    1
    71   126   127    1
    72    79    78   ar
    73    79    81   ar
    74   129   127    1
    75    90    92   ar
    76    90    89   ar
    77    85    88    1
    78    78    80   ar
    79    32    33    1
    80   118   122   am
    81   118   117    1
    82    88    89    1
    83    26    25    1
    84    34    33   ar
    85    34    36   ar
    86    53    55   ar
    87    53    54   ar
    88    92    94   ar
    89    89    91   ar
    90    23    22    2
    91    33    35   ar
    92    81    83   ar
    93    24    25    1
    94    24    21    1
    95   117   116    1
    96   117   120    1
    97    80    82   ar
    98    36    37   ar
    99    25    27    1
   100    20    21    1
   101    22    21    1
   102    94    93   ar
   103    91    93   ar
   104    83    82   ar
   105   120   121    1
   106    35    37   ar
   107    35    38   ar
   108    37    39   ar
   109   189   187    1
   110   112   111    2
   111    38    40   ar
   112   188   187    1
   113   108   107    1
   114   187   184    1
   115    39    41   ar
   116   107   106    1
   117    19    16    1
   118   111   110    1
   119     6     5    1
   120    40    41   ar
   121   115   113    1
   122   184   185    1
   123   184   183    1
   124   154   153    1
   125   110   113    1
   126   110   109    1
   127   185   186    2
   128   180   178   ar
   129   180   181   ar
   130     5     7    1
   131     5     2    1
   132    16    15    1
   133    16    17    1
   134   153   150    1
   135   106   105    1
   136   178   176   ar
   137   113   114    1
   138   182   181    1
   139   181   179   ar
   140    15    10   am
   141   152   151    2
   142    18    17    2
   143   176   175    1
   144   176   177   ar
   145    11    10    2
   146    10     9    1
   147   175   172    1
   148   105   102    1
   149   179   177   ar
   150     2     3    1
   151     2     1    1
   152     3     4    2
   153     3     8   am
   154   150   151    1
   155   150   149    1
   156     8     9    1
   157     9    12    1
   158   151   155   am
   159   174   173    2
   160   173   172    1
   161   172   171    1
   162   102   101    1
   163   102   103    1
   164   170   169    1
   165   155   156    1
   166    12    14    1
   167    12    13    1
   168   156   157    1
   169   103   104    2
   170   157   158    2
   171   169   168   ar
   172   169   167   ar
   173   168   166   ar
   174   167   165   ar
   175   166   164   ar
   176   165   164   ar
   177   164   163    1
   178   163   160    1
   179   159   160    1
   180   160   161    1
   181   161   162    2
