@<TRIPOS>MOLECULE
tmp/1qzrA00.pdb
 92 87 0 0 0
SMALL
GASTEIGER

@<TRIPOS>ATOM
      1  N         23.8380   26.3010   39.3930 N.3    11  GLN11      -0.1245
      2  CA        24.5210   27.4970   38.9560 C.3    11  GLN11       0.1566
      3  C         25.4870   27.9830   40.0340 C.2    11  GLN11       0.2260
      4  O         26.5820   28.4340   39.7200 O.2    11  GLN11      -0.2867
      5  CB        23.5080   28.5770   38.6020 C.3    11  GLN11       0.0367
      6  CG        24.1290   29.8890   38.2340 C.3    11  GLN11       0.0905
      7  CD        23.1140   30.8460   37.6650 C.2    11  GLN11       0.2608
      8  OE1       21.9280   30.8280   38.0610 O.2    11  GLN11      -0.2717
      9  NE2       23.5500   31.6690   36.7360 N.am   11  GLN11      -0.0878
     10  N         28.5670   25.7430   39.9570 N.3    14  HIS14      -0.1241
     11  CA        29.3640   26.0510   38.7810 C.3    14  HIS14       0.1621
     12  C         30.2490   27.2770   38.9660 C.2    14  HIS14       0.2264
     13  O         31.4060   27.2940   38.5170 O.2    14  HIS14      -0.2867
     14  CB        28.4830   26.2450   37.5560 C.3    14  HIS14       0.0745
     15  CG        29.2610   26.3780   36.2880 C.ar   14  HIS14       0.0817
     16  ND1       29.3540   27.5610   35.5980 N.ar   14  HIS14      -0.2268
     17  CD2       30.0160   25.4850   35.6060 C.ar   14  HIS14       0.1154
     18  CE1       30.1130   27.3930   34.5320 C.ar   14  HIS14       0.1986
     19  NE2       30.5270   26.1410   34.5130 N.ar   14  HIS14      -0.2212
     20  N         34.1430   26.8670   38.5540 N.3    18  ARG18      -0.1245
     21  CA        34.6750   27.4560   37.3270 C.3    18  ARG18       0.1563
     22  C         34.4810   28.9670   37.3250 C.2    18  ARG18       0.2260
     23  O         33.6060   29.4860   36.6370 O.2    18  ARG18      -0.2867
     24  CB        33.9870   26.8350   36.1010 C.3    18  ARG18       0.0307
     25  CG        34.1700   25.3180   35.9830 C.3    18  ARG18       0.0489
     26  CD        35.6070   24.9120   35.6360 C.3    18  ARG18       0.2205
     27  NE        35.7750   23.4680   35.5620 N.pl3  18  ARG18      -0.0865
     28  CZ        35.3040   22.7080   34.5810 C.cat  18  ARG18       0.5346
     29  NH1       34.6290   23.2520   33.5770 N.pl3  18  ARG18       0.1354
     30  NH2       35.5160   21.4060   34.5980 N.pl3  18  ARG18       0.1354
     31  N         34.6640   32.5840   33.7800 N.3    21  THR21      -0.1203
     32  CA        33.7440   33.4120   32.9860 C.3    21  THR21       0.1994
     33  C         32.8760   34.3190   33.8550 C.2    21  THR21       0.2617
     34  O         32.1460   35.1630   33.3300 O.2    21  THR21      -0.2717
     35  CB        32.8510   32.5770   32.0570 C.3    21  THR21       0.1784
     36  OG1       32.0230   31.6980   32.8410 O.3    21  THR21      -0.2211
     37  CG2       33.7090   31.6360   31.1750 C.3    21  THR21       0.0376
     38  N         32.9400   34.1370   35.1730 N.am   22  TYR22      -0.1975
     39  CA        32.1880   35.0070   36.0820 C.3    22  TYR22       0.1639
     40  C         33.0450   36.1810   36.5890 C.2    22  TYR22       0.2290
     41  O         32.6360   37.3450   36.4860 O.2    22  TYR22      -0.2864
     42  CB        31.6020   34.2130   37.2510 C.3    22  TYR22       0.0560
     43  CG        30.7170   33.0510   36.8530 C.ar   22  TYR22      -0.0198
     44  CD1       29.3450   33.2290   36.6330 C.ar   22  TYR22      -0.0009
     45  CD2       31.2370   31.7700   36.7250 C.ar   22  TYR22      -0.0009
     46  CE1       28.5280   32.1540   36.2920 C.ar   22  TYR22       0.0417
     47  CE2       30.4230   30.6870   36.3690 C.ar   22  TYR22       0.0417
     48  CZ        29.0760   30.8920   36.1510 C.ar   22  TYR22       0.1957
     49  OH        28.2690   29.8200   35.8180 O.3    22  TYR22      -0.2866
     50  N         23.7680   42.7990   34.1650 N.3   136  ASN136     -0.1240
     51  CA        23.3700   41.3820   34.1870 C.3   136  ASN136      0.1653
     52  C         22.7380   40.8350   35.4590 C.2   136  ASN136      0.2266
     53  O         22.1410   39.7440   35.4370 O.2   136  ASN136     -0.2867
     54  CB        24.5510   40.4980   33.8260 C.3   136  ASN136      0.1155
     55  CG        25.1870   40.8980   32.5200 C.2   136  ASN136      0.2627
     56  OD1       24.4980   41.0940   31.5210 O.2   136  ASN136     -0.2716
     57  ND2       26.5110   41.0290   32.5210 N.am  136  ASN136     -0.0877
     58  N         24.4800   40.0140   38.3210 N.3   138  TYR138     -0.1241
     59  CA        25.3910   39.0260   38.9260 C.3   138  TYR138      0.1605
     60  C         26.3990   39.6400   39.8980 C.2   138  TYR138      0.2264
     61  O         26.7710   39.0070   40.8890 O.2   138  TYR138     -0.2867
     62  CB        26.1780   38.3020   37.8380 C.3   138  TYR138      0.0534
     63  CG        25.4740   37.0980   37.2590 C.ar  138  TYR138     -0.0201
     64  CD1       24.5850   37.2400   36.1960 C.ar  138  TYR138     -0.0009
     65  CD2       25.6710   35.8230   37.7990 C.ar  138  TYR138     -0.0009
     66  CE1       23.9290   36.1270   35.6440 C.ar  138  TYR138      0.0417
     67  CE2       25.0100   34.7050   37.2760 C.ar  138  TYR138      0.0417
     68  CZ        24.1320   34.8740   36.1940 C.ar  138  TYR138      0.1957
     69  OH        23.4770   33.7900   35.6550 O.3   138  TYR138     -0.2866
     70  N         28.2340   37.7340   43.0140 N.3   142  LEU142     -0.1245
     71  CA        29.5410   37.1260   42.7930 C.3   142  LEU142      0.1561
     72  C         30.5080   37.5130   43.9060 C.2   142  LEU142      0.2260
     73  O         31.2750   36.6860   44.3760 O.2   142  LEU142     -0.2867
     74  CB        30.1170   37.5020   41.4120 C.3   142  LEU142      0.0270
     75  CG        29.3430   36.8950   40.2310 C.3   142  LEU142      0.0019
     76  CD1       29.8740   37.4140   38.8780 C.3   142  LEU142      0.0001
     77  CD2       29.3400   35.3500   40.2610 C.3   142  LEU142      0.0001
     78  N         32.1390   39.5620   28.2830 N.3   336  SER336     -0.1202
     79  CA        32.0160   38.7270   29.4910 C.3   336  SER336      0.2020
     80  C         31.4540   39.5070   30.6580 C.2   336  SER336      0.2618
     81  O         31.3430   40.7480   30.6020 O.2   336  SER336     -0.2717
     82  CB        33.3850   38.1500   29.8940 C.3   336  SER336      0.2103
     83  OG        34.2330   39.2020   30.3370 O.3   336  SER336     -0.2182
     84  N         31.1160   38.7820   31.7200 N.am  337  GLN337     -0.1979
     85  CA        30.6890   39.3960   32.9700 C.3   337  GLN337      0.1601
     86  C         31.7290   40.3800   33.5190 C.2   337  GLN337      0.2287
     87  O         31.3560   41.3420   34.1760 O.2   337  GLN337     -0.2864
     88  CB        30.3380   38.3280   34.0330 C.3   337  GLN337      0.0394
     89  CG        29.9810   38.9080   35.4240 C.3   337  GLN337      0.0908
     90  CD        28.7220   39.7900   35.4100 C.2   337  GLN337      0.2608
     91  OE1       27.7940   39.5270   34.6710 O.2   337  GLN337     -0.2717
     92  NE2       28.6960   40.8100   36.2550 N.am  337  GLN337     -0.0878
@<TRIPOS>BOND
     1    78    79    1
     2    79    82    1
     3    79    80    1
     4    82    83    1
     5    81    80    2
     6    80    84   am
     7    37    35    1
     8    56    55    2
     9    84    85    1
    10    35    36    1
    11    35    32    1
    12    55    57   am
    13    55    54    1
    14    85    86    1
    15    85    88    1
    16    32    31    1
    17    32    33    1
    18    34    33    2
    19    86    87    2
    20    29    28    1
    21    54    51    1
    22    33    38   am
    23    88    89    1
    24    50    51    1
    25    51    52    1
    26    19    18   ar
    27    19    17   ar
    28    18    16   ar
    29    28    30    1
    30    28    27    2
    31    91    90    2
    32    38    39    1
    33    90    89    1
    34    90    92   am
    35    53    52    2
    36    27    26    1
    37    16    15   ar
    38    17    15   ar
    39    26    25    1
    40    66    68   ar
    41    66    64   ar
    42    69    68    1
    43    49    48    1
    44    25    24    1
    45    39    40    1
    46    39    42    1
    47    24    21    1
    48    48    46   ar
    49    48    47   ar
    50    68    67   ar
    51    64    63   ar
    52    15    14    1
    53    46    44   ar
    54    47    45   ar
    55    41    40    2
    56    44    43   ar
    57    23    22    2
    58    45    43   ar
    59     9     7   am
    60    43    42    1
    61    63    65   ar
    62    63    62    1
    63    67    65   ar
    64    22    21    1
    65    21    20    1
    66    14    11    1
    67     7     8    2
    68     7     6    1
    69    62    59    1
    70     6     5    1
    71    58    59    1
    72    13    12    2
    73     5     2    1
    74    11    12    1
    75    11    10    1
    76    76    75    1
    77    59    60    1
    78     2     1    1
    79     2     3    1
    80     4     3    2
    81    60    61    2
    82    75    77    1
    83    75    74    1
    84    74    71    1
    85    71    70    1
    86    71    72    1
    87    72    73    2
