@<TRIPOS>MOLECULE
tmp/1qzrA01.pdb
 217 205 0 0 0
SMALL
GASTEIGER

@<TRIPOS>ATOM
      1  N         33.3740   44.9560   41.3070 N.3    60  GLU60      -0.1231
      2  CA        31.9260   44.8300   41.1770 C.3    60  GLU60       0.1699
      3  C         31.2130   45.7510   42.1880 C.2    60  GLU60       0.2592
      4  O         30.2280   46.4220   41.8490 O.2    60  GLU60      -0.2718
      5  CB        31.4730   43.3740   41.3570 C.3    60  GLU60       0.0402
      6  CG        31.8880   42.4320   40.2200 C.3    60  GLU60       0.1161
      7  CD        31.0530   42.5720   38.9350 C.2    60  GLU60       0.3649
      8  OE1       30.2330   43.5190   38.8130 O.co2  60  GLU60      -0.2457
      9  OE2       31.2110   41.7090   38.0220 O.co2  60  GLU60      -0.2457
     10  N         31.7400   45.8130   43.4040 N.am   61  ILE61      -0.1980
     11  CA        31.1040   46.6240   44.4660 C.3    61  ILE61       0.1595
     12  C         31.3350   48.1130   44.2180 C.2    61  ILE61       0.2287
     13  O         30.4430   48.9370   44.4460 O.2    61  ILE61      -0.2864
     14  CB        31.5970   46.1860   45.8640 C.3    61  ILE61       0.0276
     15  CG1       31.2530   44.7100   46.1180 C.3    61  ILE61       0.0022
     16  CG2       31.0070   47.0820   46.9910 C.3    61  ILE61       0.0022
     17  CD1       29.7800   44.3320   45.8540 C.3    61  ILE61       0.0001
     18  N         29.0060   49.3160   41.3870 N.3    64  ASN64      -0.1225
     19  CA        27.6410   49.4880   41.9460 C.3    64  ASN64       0.1785
     20  C         27.4710   50.8140   42.6600 C.2    64  ASN64       0.2597
     21  O         26.4260   51.4610   42.5490 O.2    64  ASN64      -0.2718
     22  CB        27.2810   48.3300   42.9130 C.3    64  ASN64       0.1169
     23  CG        26.9570   47.0430   42.1770 C.2    64  ASN64       0.2627
     24  OD1       26.7150   47.0530   40.9600 O.2    64  ASN64      -0.2716
     25  ND2       26.9620   45.9180   42.9030 N.am   64  ASN64      -0.0877
     26  N         28.4930   51.2190   43.3990 N.am   65  ALA65      -0.1979
     27  CA        28.4400   52.4990   44.1000 C.3    65  ALA65       0.1597
     28  C         28.4410   53.6640   43.1150 C.2    65  ALA65       0.2287
     29  O         27.6350   54.6040   43.2470 O.2    65  ALA65      -0.2864
     30  CB        29.5860   52.6160   45.1000 C.3    65  ALA65       0.0319
     31  N         27.3550   53.4840   40.1100 N.3    67  ASP67      -0.1225
     32  CA        26.0490   53.4200   39.4600 C.3    67  ASP67       0.1805
     33  C         24.9970   54.2080   40.2270 C.2    67  ASP67       0.2597
     34  O         24.0380   54.6970   39.6320 O.2    67  ASP67      -0.2718
     35  CB        25.5830   51.9620   39.2830 C.3    67  ASP67       0.1424
     36  CG        26.3230   51.2450   38.1570 C.2    67  ASP67       0.3668
     37  OD1       26.9160   51.9430   37.3050 O.co2  67  ASP67      -0.2456
     38  OD2       26.3890   49.9910   38.0550 O.co2  67  ASP67      -0.2456
     39  N         25.1780   54.3380   41.5410 N.am   68  ASN68      -0.1974
     40  CA        24.2090   55.0740   42.3520 C.3    68  ASN68       0.1688
     41  C         24.1910   56.5640   42.0580 C.2    68  ASN68       0.2292
     42  O         23.1810   57.2150   42.2820 O.2    68  ASN68      -0.2864
     43  CB        24.4010   54.8190   43.8530 C.3    68  ASN68       0.1181
     44  CG        23.1180   55.0360   44.6380 C.2    68  ASN68       0.2629
     45  OD1       22.1040   54.4150   44.3490 O.2    68  ASN68      -0.2716
     46  ND2       23.1530   55.9450   45.6130 N.am   68  ASN68      -0.0877
     47  N         21.5660   56.8880   39.2330 N.3    71  ARG71      -0.1245
     48  CA        20.2110   56.8280   39.7990 C.3    71  ARG71       0.1563
     49  C         19.9040   58.0140   40.7370 C.2    71  ARG71       0.2260
     50  O         18.7700   58.5100   40.7730 O.2    71  ARG71      -0.2867
     51  CB        19.9770   55.4580   40.4580 C.3    71  ARG71       0.0307
     52  CG        19.3180   55.4170   41.8420 C.3    71  ARG71       0.0489
     53  CD        19.3630   54.0120   42.4550 C.3    71  ARG71       0.2205
     54  NE        18.2410   53.6950   43.3380 N.pl3  71  ARG71      -0.0865
     55  CZ        18.3480   53.5700   44.6620 C.cat  71  ARG71       0.5346
     56  NH1       19.5090   53.7820   45.2590 N.pl3  71  ARG71       0.1354
     57  NH2       17.2860   53.2570   45.3900 N.pl3  71  ARG71       0.1354
     58  N         28.4500   54.4310   49.9910 N.3    93  ASN93      -0.1240
     59  CA        28.0610   55.5660   49.1950 C.3    93  ASN93       0.1653
     60  C         26.8990   56.2720   49.8540 C.2    93  ASN93       0.2266
     61  O         26.1040   55.6470   50.5650 O.2    93  ASN93      -0.2867
     62  CB        27.7270   55.1300   47.7570 C.3    93  ASN93       0.1155
     63  CG        26.5390   54.1740   47.6920 C.2    93  ASN93       0.2627
     64  OD1       26.7090   52.9570   47.6490 O.2    93  ASN93      -0.2716
     65  ND2       25.3290   54.7290   47.6930 N.am   93  ASN93      -0.0877
     66  N         20.5880   57.9750   47.6160 N.3    96  LYS96      -0.1245
     67  CA        19.5020   57.0180   47.8340 C.3    96  LYS96       0.1561
     68  C         20.0210   55.6340   48.2090 C.2    96  LYS96       0.2260
     69  O         20.9240   55.1220   47.5580 O.2    96  LYS96      -0.2867
     70  CB        18.6410   56.9200   46.5670 C.3    96  LYS96       0.0271
     71  CG        17.2610   56.3280   46.7990 C.3    96  LYS96       0.0035
     72  CD        16.2850   56.6940   45.6750 C.3    96  LYS96       0.0206
     73  CE        15.0940   55.7330   45.6530 C.3    96  LYS96       0.1093
     74  NZ        13.7840   56.4430   45.6260 N.3    96  LYS96      -0.1314
     75  N         18.8630   51.4360   49.4400 N.3    98  ILE98      -0.1245
     76  CA        17.9940   50.3780   48.8770 C.3    98  ILE98       0.1561
     77  C         16.6400   50.3940   49.5960 C.2    98  ILE98       0.2260
     78  O         16.6030   50.4530   50.8130 O.2    98  ILE98      -0.2867
     79  CB        18.6240   48.9480   49.0600 C.3    98  ILE98       0.0252
     80  CG1       20.1620   48.9300   48.8820 C.3    98  ILE98       0.0019
     81  CG2       17.9020   47.8990   48.1850 C.3    98  ILE98       0.0019
     82  CD1       20.6390   49.1450   47.5030 C.3    98  ILE98       0.0001
     83  N         18.2460   41.2270   46.0730 N.3   114  ILE114     -0.1231
     84  CA        19.2060   41.7170   45.0760 C.3   114  ILE114      0.1692
     85  C         20.6830   41.5460   45.4640 C.2   114  ILE114      0.2592
     86  O         21.5780   41.7270   44.6170 O.2   114  ILE114     -0.2718
     87  CB        18.8650   43.1770   44.6600 C.3   114  ILE114      0.0266
     88  CG1       19.1550   44.1560   45.8100 C.3   114  ILE114      0.0019
     89  CG2       17.4050   43.2530   44.2300 C.3   114  ILE114      0.0020
     90  CD1       18.9510   45.6310   45.4440 C.3   114  ILE114      0.0001
     91  N         20.9440   41.1860   46.7270 N.am  115  PHE115     -0.1976
     92  CA        22.3090   40.8590   47.1620 C.3   115  PHE115      0.1639
     93  C         22.5340   39.3760   47.4790 C.2   115  PHE115      0.2290
     94  O         23.6850   38.9380   47.6240 O.2   115  PHE115     -0.2864
     95  CB        22.7190   41.7140   48.3660 C.3   115  PHE115      0.0560
     96  CG        23.0460   43.1300   48.0150 C.ar  115  PHE115     -0.0200
     97  CD1       24.3340   43.4880   47.6570 C.ar  115  PHE115     -0.0042
     98  CD2       22.0700   44.1070   48.0550 C.ar  115  PHE115     -0.0042
     99  CE1       24.6480   44.8210   47.3100 C.ar  115  PHE115     -0.0003
    100  CE2       22.3670   45.4380   47.7270 C.ar  115  PHE115     -0.0003
    101  CZ        23.6570   45.7880   47.3470 C.ar  115  PHE115     -0.0000
    102  N         19.2320   39.0070   39.7200 N.3   120  THR120     -0.1203
    103  CA        18.3660   40.0360   40.2770 C.3   120  THR120      0.1994
    104  C         18.9910   41.3660   39.9670 C.2   120  THR120      0.2619
    105  O         20.1900   41.5590   40.1860 O.2   120  THR120     -0.2717
    106  CB        18.2280   39.8740   41.8050 C.3   120  THR120      0.1784
    107  OG1       19.5330   39.7330   42.3770 O.3   120  THR120     -0.2211
    108  CG2       17.5440   38.5670   42.1520 C.3   120  THR120      0.0376
    109  N         18.1790   42.2990   39.4900 N.am  121  SER121     -0.1937
    110  CA        18.7040   43.5580   38.9840 C.3   121  SER121      0.2055
    111  C         17.6050   44.5900   38.8110 C.2   121  SER121      0.2644
    112  O         16.4480   44.2370   38.6390 O.2   121  SER121     -0.2714
    113  CB        19.3870   43.3340   37.6250 C.3   121  SER121      0.2130
    114  OG        20.0190   44.5260   37.1770 O.3   121  SER121     -0.2179
    115  N         17.9920   45.8610   38.8390 N.am  122  SER122     -0.1935
    116  CA        17.1220   46.9580   38.4080 C.3   122  SER122      0.2055
    117  C         17.4330   47.3500   36.9550 C.2   122  SER122      0.2643
    118  O         16.9010   48.3340   36.4360 O.2   122  SER122     -0.2714
    119  CB        17.3110   48.1670   39.3390 C.3   122  SER122      0.2130
    120  OG        18.6540   48.6300   39.2830 O.3   122  SER122     -0.2179
    121  N         18.2950   46.5730   36.2970 N.am  123  ASN123     -0.1971
    122  CA        18.7710   46.9260   34.9620 C.3   123  ASN123      0.1688
    123  C         18.2430   46.0370   33.8360 C.2   123  ASN123      0.2292
    124  O         18.8380   45.9830   32.7730 O.2   123  ASN123     -0.2864
    125  CB        20.3070   46.9600   34.9290 C.3   123  ASN123      0.1181
    126  CG        20.8800   48.0970   35.7540 C.2   123  ASN123      0.2629
    127  OD1       21.5870   47.8810   36.7650 O.2   123  ASN123     -0.2716
    128  ND2       20.5840   49.3120   35.3410 N.am  123  ASN123     -0.0877
    129  N         25.8940   48.6550   35.5660 N.3   134  GLY134     -0.1210
    130  CA        25.2100   47.4000   35.8650 C.3   134  GLY134      0.1956
    131  C         24.3280   46.9300   34.7210 C.2   134  GLY134      0.2612
    132  O         23.5770   47.7270   34.1590 O.2   134  GLY134     -0.2717
    133  N         24.4170   45.6390   34.3900 N.am  135  ARG135     -0.1965
    134  CA        23.7330   45.0750   33.2290 C.3   135  ARG135      0.1729
    135  C         23.0660   43.7120   33.4870 C.2   135  ARG135      0.2616
    136  O         21.9160   43.5130   33.1010 O.2   135  ARG135     -0.2715
    137  CB        24.6830   44.9530   32.0220 C.3   135  ARG135      0.0348
    138  CG        25.2470   46.2890   31.4660 C.3   135  ARG135      0.0492
    139  CD        24.1990   47.2160   30.8350 C.3   135  ARG135      0.2205
    140  NE        23.5500   46.6020   29.6750 N.pl3 135  ARG135     -0.0865
    141  CZ        22.2360   46.5450   29.4930 C.cat 135  ARG135      0.5346
    142  NH1       21.4120   47.0930   30.3760 N.pl3 135  ARG135      0.1354
    143  NH2       21.7440   45.9630   28.4150 N.pl3 135  ARG135      0.1354
    144  N         23.7680   42.7990   34.1650 N.am  136  ASN136     -0.1958
    145  CA        23.3700   41.3820   34.1870 C.3   136  ASN136      0.1819
    146  C         22.7380   40.8350   35.4590 C.2   136  ASN136      0.2622
    147  O         22.1410   39.7440   35.4370 O.2   136  ASN136     -0.2715
    148  CB        24.5510   40.4980   33.8260 C.3   136  ASN136      0.1195
    149  CG        25.1870   40.8980   32.5200 C.2   136  ASN136      0.2630
    150  OD1       24.4980   41.0940   31.5210 O.2   136  ASN136     -0.2716
    151  ND2       26.5110   41.0290   32.5210 N.am  136  ASN136     -0.0877
    152  N         22.8980   41.5550   36.5620 N.am  137  GLY137     -0.1940
    153  CA        22.3580   41.1040   37.8360 C.3   137  GLY137      0.2014
    154  C         23.1510   39.9920   38.5030 C.2   137  GLY137      0.2639
    155  O         22.5700   39.1610   39.2110 O.2   137  GLY137     -0.2714
    156  N         24.4800   40.0140   38.3210 N.am  138  TYR138     -0.1959
    157  CA        25.3910   39.0260   38.9260 C.3   138  TYR138      0.1771
    158  C         26.3990   39.6400   39.8980 C.2   138  TYR138      0.2620
    159  O         26.7710   39.0070   40.8890 O.2   138  TYR138     -0.2715
    160  CB        26.1780   38.3020   37.8380 C.3   138  TYR138      0.0574
    161  CG        25.4740   37.0980   37.2590 C.ar  138  TYR138     -0.0198
    162  CD1       24.5850   37.2400   36.1960 C.ar  138  TYR138     -0.0009
    163  CD2       25.6710   35.8230   37.7990 C.ar  138  TYR138     -0.0009
    164  CE1       23.9290   36.1270   35.6440 C.ar  138  TYR138      0.0417
    165  CE2       25.0100   34.7050   37.2760 C.ar  138  TYR138      0.0417
    166  CZ        24.1320   34.8740   36.1940 C.ar  138  TYR138      0.1957
    167  OH        23.4770   33.7900   35.6550 O.3   138  TYR138     -0.2866
    168  N         26.8690   40.8500   39.5830 N.am  139  GLY139     -0.1940
    169  CA        27.9950   41.4750   40.2720 C.3   139  GLY139      0.2014
    170  C         28.1020   41.3360   41.7920 C.2   139  GLY139      0.2639
    171  O         29.0600   40.7700   42.3020 O.2   139  GLY139     -0.2714
    172  N         27.1090   41.8490   42.5100 N.am  140  ALA140     -0.1963
    173  CA        27.1190   41.8250   43.9660 C.3   140  ALA140      0.1728
    174  C         27.0270   40.4050   44.5490 C.2   140  ALA140      0.2616
    175  O         27.6230   40.1050   45.5850 O.2   140  ALA140     -0.2715
    176  CB        26.0110   42.7180   44.5090 C.3   140  ALA140      0.0334
    177  N         26.2990   39.5260   43.8680 N.am  141  LYS141     -0.1977
    178  CA        26.1940   38.1370   44.2990 C.3   141  LYS141      0.1596
    179  C         27.5130   37.4000   44.0900 C.2   141  LYS141      0.2287
    180  O         27.8780   36.5500   44.8900 O.2   141  LYS141     -0.2864
    181  CB        25.0590   37.4210   43.5530 C.3   141  LYS141      0.0298
    182  CG        23.6680   37.6570   44.1510 C.3   141  LYS141      0.0038
    183  CD        23.1480   39.0830   43.8890 C.3   141  LYS141      0.0206
    184  CE        22.8230   39.3140   42.3780 C.3   141  LYS141      0.1093
    185  NZ        22.2770   40.6930   42.1530 N.3   141  LYS141     -0.1314
    186  N         24.2680   53.4640   51.5540 N.3   189  THR189     -0.1218
    187  CA        24.4500   52.0280   51.4910 C.3   189  THR189      0.1862
    188  C         25.9080   51.7190   51.7740 C.2   189  THR189      0.2287
    189  O         26.8080   52.3980   51.2690 O.2   189  THR189     -0.2866
    190  CB        24.0440   51.5150   50.1060 C.3   189  THR189      0.1770
    191  OG1       22.6300   51.6740   49.9580 O.3   189  THR189     -0.2211
    192  CG2       24.2590   49.9920   49.9860 C.3   189  THR189      0.0375
    193  N         28.5080   48.3470   51.9430 N.3   191  VAL191     -0.1245
    194  CA        28.7780   46.9300   51.6980 C.3   191  VAL191      0.1561
    195  C         30.1160   46.6080   52.3300 C.2   191  VAL191      0.2260
    196  O         31.1140   47.2930   52.0570 O.2   191  VAL191     -0.2867
    197  CB        28.8100   46.6110   50.1650 C.3   191  VAL191      0.0252
    198  CG1       29.3020   45.1710   49.9080 C.3   191  VAL191      0.0019
    199  CG2       27.4290   46.8200   49.5250 C.3   191  VAL191      0.0019
    200  N         31.1160   38.7820   31.7200 N.3   337  GLN337     -0.1245
    201  CA        30.6890   39.3960   32.9700 C.3   337  GLN337      0.1566
    202  C         31.7290   40.3800   33.5190 C.2   337  GLN337      0.2260
    203  O         31.3560   41.3420   34.1760 O.2   337  GLN337     -0.2867
    204  CB        30.3380   38.3280   34.0330 C.3   337  GLN337      0.0367
    205  CG        29.9810   38.9080   35.4240 C.3   337  GLN337      0.0905
    206  CD        28.7220   39.7900   35.4100 C.2   337  GLN337      0.2608
    207  OE1       27.7940   39.5270   34.6710 O.2   337  GLN337     -0.2717
    208  NE2       28.6960   40.8100   36.2550 N.am  337  GLN337     -0.0878
    209  N         33.4460   42.5010   31.8940 N.3   339  LYS339     -0.1245
    210  CA        33.2860   43.7780   31.1610 C.3   339  LYS339      0.1561
    211  C         34.6130   44.4500   30.7980 C.2   339  LYS339      0.2260
    212  O         34.7310   45.6790   30.8240 O.2   339  LYS339     -0.2867
    213  CB        32.3890   44.7520   31.9330 C.3   339  LYS339      0.0271
    214  CG        30.9780   44.2330   32.1790 C.3   339  LYS339      0.0035
    215  CD        30.2730   45.0800   33.2140 C.3   339  LYS339      0.0206
    216  CE        28.8580   44.5740   33.4740 C.3   339  LYS339      0.1093
    217  NZ        28.8520   43.1680   33.9020 N.3   339  LYS339     -0.1314
@<TRIPOS>BOND
     1   143   141    1
     2   141   140    2
     3   141   142    1
     4   140   139    1
     5   211   212    2
     6   211   210    1
     7   139   138    1
     8   210   209    1
     9   210   213    1
    10   138   137    1
    11   150   149    2
    12   200   201    1
    13   213   214    1
    14   137   134    1
    15   214   215    1
    16   149   151   am
    17   149   148    1
    18   124   123    2
    19   201   202    1
    20   201   204    1
    21   136   135    2
    22   215   216    1
    23   134   135    1
    24   134   133    1
    25   216   217    1
    26   135   144   am
    27   202   203    2
    28   148   145    1
    29   123   122    1
    30   204   205    1
    31   132   131    2
    32   144   145    1
    33   145   146    1
    34   133   131   am
    35   207   206    2
    36   131   130    1
    37   125   122    1
    38   125   126    1
    39   122   121    1
    40   128   126   am
    41   206   205    1
    42   206   208   am
    43   147   146    2
    44   146   152   am
    45   129   130    1
    46   164   166   ar
    47   164   162   ar
    48   167   166    1
    49   126   127    2
    50   166   165   ar
    51   162   161   ar
    52   121   117   am
    53   118   117    2
    54   152   153    1
    55   117   116    1
    56   114   113    1
    57   161   163   ar
    58   161   160    1
    59   165   163   ar
    60    37    36   ar
    61   113   110    1
    62   153   154    1
    63   160   157    1
    64     9     7   ar
    65    38    36   ar
    66    36    35    1
    67   156   154   am
    68   156   157    1
    69   116   115    1
    70   116   119    1
    71   154   155    2
    72   112   111    2
    73   111   115   am
    74   111   110    1
    75     8     7   ar
    76   157   158    1
    77     7     6    1
    78   110   109    1
    79    47    48    1
    80   120   119    1
    81    35    32    1
    82    32    31    1
    83    32    33    1
    84   109   104   am
    85   168   158   am
    86   168   169    1
    87    34    33    2
    88   102   103    1
    89    48    51    1
    90    48    49    1
    91   158   159    2
    92   104   105    2
    93   104   103    1
    94     6     5    1
    95    33    39   am
    96   169   170    1
    97   103   106    1
    98    51    52    1
    99    49    50    2
   100    24    23    2
   101     2     1    1
   102     2     5    1
   103     2     3    1
   104    18    19    1
   105    39    40    1
   106   170   171    2
   107   170   172   am
   108   106   108    1
   109   106   107    1
   110    52    53    1
   111     4     3    2
   112    19    20    1
   113    19    22    1
   114    41    42    2
   115    41    40    1
   116   185   184    1
   117    23    25   am
   118    23    22    1
   119     3    10   am
   120    40    43    1
   121   184   183    1
   122    53    54    1
   123   172   173    1
   124    21    20    2
   125    20    26   am
   126    28    29    2
   127    28    27    1
   128    54    55    2
   129    26    27    1
   130    10    11    1
   131   181   182    1
   132   181   178    1
   133    43    44    1
   134   177   178    1
   135   177   174   am
   136   183   182    1
   137   173   176    1
   138   173   174    1
   139   179   178    1
   140   179   180    2
   141    27    30    1
   142    12    13    2
   143    12    11    1
   144    89    87    1
   145    45    44    2
   146    11    14    1
   147   174   175    2
   148    86    85    2
   149    44    46   am
   150    87    84    1
   151    87    88    1
   152    55    56    1
   153    55    57    1
   154    84    85    1
   155    84    83    1
   156    90    88    1
   157    85    91   am
   158    74    73    1
   159    73    72    1
   160    72    71    1
   161    17    15    1
   162    14    15    1
   163    14    16    1
   164    70    71    1
   165    70    67    1
   166    91    92    1
   167    92    93    1
   168    92    95    1
   169    99   101   ar
   170    99    97   ar
   171   101   100   ar
   172    93    94    2
   173    82    80    1
   174    69    68    2
   175    66    67    1
   176    64    63    2
   177    97    96   ar
   178    63    65   am
   179    63    62    1
   180   100    98   ar
   181    62    59    1
   182    67    68    1
   183    96    98   ar
   184    96    95    1
   185    81    79    1
   186    76    79    1
   187    76    75    1
   188    76    77    1
   189    80    79    1
   190    59    60    1
   191    59    58    1
   192   199   197    1
   193    77    78    2
   194    60    61    2
   195   198   197    1
   196   191   190    1
   197   192   190    1
   198   190   187    1
   199   197   194    1
   200   189   188    2
   201   187   186    1
   202   187   188    1
   203   194   193    1
   204   194   195    1
   205   196   195    2
