@<TRIPOS>MOLECULE
tmp/1qzuC00.pdb
 146 140 0 0 0
SMALL
GASTEIGER

@<TRIPOS>ATOM
      1  N        -13.7980   79.1240    1.5390 N.3    12  THR12      -0.1203
      2  CA       -12.9860   77.9170    1.4360 C.3    12  THR12       0.1994
      3  C        -13.7720   76.7920    0.7760 C.2    12  THR12       0.2618
      4  O        -14.9240   76.9800    0.3860 O.2    12  THR12      -0.2717
      5  CB       -12.5430   77.4410    2.8000 C.3    12  THR12       0.1784
      6  OG1      -13.7050   77.0820    3.5570 O.3    12  THR12      -0.2211
      7  CG2      -11.7770   78.5250    3.5190 C.3    12  THR12       0.0376
      8  N        -13.1520   75.6150    0.6910 N.am   13  GLY13      -0.1942
      9  CA       -13.7530   74.4590    0.0310 C.3    13  GLY13       0.2014
     10  C        -14.8540   73.6450    0.6820 C.2    13  GLY13       0.2640
     11  O        -14.8300   72.4120    0.6440 O.2    13  GLY13      -0.2714
     12  N        -15.8410   74.3180    1.2610 N.am   14  SER14      -0.1935
     13  CA       -16.9540   73.6090    1.8890 C.3    14  SER14       0.2055
     14  C        -18.2000   73.7730    1.0270 C.2    14  SER14       0.2642
     15  O        -18.3940   74.8260    0.4240 O.2    14  SER14      -0.2714
     16  CB       -17.2140   74.1640    3.2960 C.3    14  SER14       0.2130
     17  OG       -18.3690   73.5810    3.8770 O.3    14  SER14      -0.2179
     18  N        -19.0360   72.7410    0.9550 N.am   15  VAL15      -0.1977
     19  CA       -20.2580   72.8340    0.1700 C.3    15  VAL15       0.1596
     20  C        -21.0530   74.1030    0.5270 C.2    15  VAL15       0.2287
     21  O        -21.8780   74.5760   -0.2660 O.2    15  VAL15      -0.2864
     22  CB       -21.1850   71.6360    0.4070 C.3    15  VAL15       0.0276
     23  CG1      -22.2380   71.5960   -0.6840 C.3    15  VAL15       0.0022
     24  CG2      -20.3950   70.3610    0.4520 C.3    15  VAL15       0.0022
     25  N        -10.2010   80.3560   -1.8630 N.3    37  THR37      -0.1203
     26  CA        -9.2000   79.3530   -1.9340 C.3    37  THR37       0.1994
     27  C         -9.5230   78.7900   -3.3070 C.2    37  THR37       0.2618
     28  O        -10.5220   79.1610   -3.9350 O.2    37  THR37      -0.2717
     29  CB        -9.4180   78.3100   -0.8540 C.3    37  THR37       0.1784
     30  OG1      -10.7530   77.7590   -0.9700 O.3    37  THR37      -0.2211
     31  CG2       -9.1900   78.9430    0.5190 C.3    37  THR37       0.0376
     32  N         -8.6830   77.9060   -3.7980 N.am   38  GLU38      -0.1965
     33  CA        -8.9760   77.3660   -5.0880 C.3    38  GLU38       0.1733
     34  C        -10.1750   76.4360   -5.0100 C.2    38  GLU38       0.2616
     35  O        -11.1620   76.6400   -5.6950 O.2    38  GLU38      -0.2715
     36  CB        -7.7380   76.6460   -5.6250 C.3    38  GLU38       0.0429
     37  CG        -6.7250   77.5990   -6.1950 C.3    38  GLU38       0.1163
     38  CD        -7.3390   78.5340   -7.2600 C.2    38  GLU38       0.3649
     39  OE1       -7.8590   77.9900   -8.2710 O.co2  38  GLU38      -0.2457
     40  OE2       -7.3000   79.7910   -7.0710 O.co2  38  GLU38      -0.2457
     41  N        -10.1120   75.4250   -4.1460 N.am   39  ARG39      -0.1977
     42  CA       -11.2030   74.4690   -4.0890 C.3    39  ARG39       0.1597
     43  C        -12.5730   75.0930   -3.8750 C.2    39  ARG39       0.2287
     44  O        -13.5570   74.6600   -4.4700 O.2    39  ARG39      -0.2864
     45  CB       -10.8890   73.3640   -3.0670 C.3    39  ARG39       0.0334
     46  CG        -9.9700   72.2770   -3.6480 C.3    39  ARG39       0.0492
     47  CD       -10.3050   72.0680   -5.1380 C.3    39  ARG39       0.2205
     48  NE        -9.8770   70.7930   -5.7100 N.pl3  39  ARG39      -0.0865
     49  CZ        -8.6260   70.3480   -5.7090 C.cat  39  ARG39       0.5346
     50  NH1       -7.6520   71.0670   -5.1620 N.pl3  39  ARG39       0.1354
     51  NH2       -8.3410   69.1760   -6.2480 N.pl3  39  ARG39       0.1354
     52  N        -15.0950   75.6270   -6.2420 N.3    42  HIS42      -0.1226
     53  CA       -15.7260   74.4400   -6.7650 C.3    42  HIS42       0.1752
     54  C        -17.2090   74.4560   -6.4320 C.2    42  HIS42       0.2596
     55  O        -17.9710   73.6300   -6.9150 O.2    42  HIS42      -0.2718
     56  CB       -15.0650   73.1970   -6.1840 C.3    42  HIS42       0.0759
     57  CG       -15.2170   71.9850   -7.0430 C.ar   42  HIS42       0.0818
     58  ND1      -16.3340   71.1770   -6.9940 N.ar   42  HIS42      -0.2268
     59  CD2      -14.4220   71.4740   -8.0120 C.ar   42  HIS42       0.1154
     60  CE1      -16.2230   70.2210   -7.9000 C.ar   42  HIS42       0.1986
     61  NE2      -15.0730   70.3800   -8.5320 N.ar   42  HIS42      -0.2212
     62  N        -17.6290   75.4280   -5.6310 N.am   43  PHE43      -0.1976
     63  CA       -19.0200   75.5280   -5.2210 C.3    43  PHE43       0.1639
     64  C        -19.7860   76.7440   -5.7210 C.2    43  PHE43       0.2290
     65  O        -20.9710   76.8910   -5.4470 O.2    43  PHE43      -0.2864
     66  CB       -19.0760   75.4320   -3.7000 C.3    43  PHE43       0.0560
     67  CG       -18.5640   74.1330   -3.1860 C.ar   43  PHE43      -0.0200
     68  CD1      -19.3230   72.9690   -3.3350 C.ar   43  PHE43      -0.0042
     69  CD2      -17.2890   74.0410   -2.6310 C.ar   43  PHE43      -0.0042
     70  CE1      -18.8190   71.7290   -2.9400 C.ar   43  PHE43      -0.0003
     71  CE2      -16.7730   72.8050   -2.2320 C.ar   43  PHE43      -0.0003
     72  CZ       -17.5400   71.6470   -2.3880 C.ar   43  PHE43      -0.0000
     73  N        -13.3990   75.9430    6.4840 N.3    88  ASP88      -0.1225
     74  CA       -13.4360   74.4930    6.4830 C.3    88  ASP88       0.1805
     75  C        -12.5120   73.8760    7.4860 C.2    88  ASP88       0.2598
     76  O        -11.6460   74.5450    8.0650 O.2    88  ASP88      -0.2718
     77  CB       -13.1520   73.9280    5.0840 C.3    88  ASP88       0.1424
     78  CG       -11.8750   74.4560    4.4770 C.2    88  ASP88       0.3668
     79  OD1      -10.8190   74.4730    5.1540 O.co2  88  ASP88      -0.2456
     80  OD2      -11.9480   74.8350    3.3000 O.co2  88  ASP88      -0.2456
     81  N        -12.6940   72.5810    7.6900 N.am   89  ALA89      -0.1966
     82  CA       -11.8820   71.8880    8.6630 C.3    89  ALA89       0.1728
     83  C        -10.4200   71.9860    8.3220 C.2    89  ALA89       0.2616
     84  O         -9.5610   71.8780    9.2170 O.2    89  ALA89      -0.2715
     85  CB       -12.2810   70.4670    8.7340 C.3    89  ALA89       0.0334
     86  N        -10.1420   72.2130    7.0380 N.am   90  ASN90      -0.1958
     87  CA        -8.7820   72.2490    6.5600 C.3    90  ASN90       0.1819
     88  C         -8.1160   73.5780    6.9020 C.2    90  ASN90       0.2621
     89  O         -7.0190   73.5920    7.4960 O.2    90  ASN90      -0.2715
     90  CB        -8.8090   71.9580    5.0300 C.3    90  ASN90       0.1195
     91  CG        -7.4000   71.8460    4.3770 C.2    90  ASN90       0.2630
     92  OD1       -6.6640   70.8810    4.6180 O.2    90  ASN90      -0.2716
     93  ND2       -7.0390   72.8420    3.5470 N.am   90  ASN90      -0.0877
     94  N         -8.7740   74.6750    6.5250 N.am   91  THR91      -0.1951
     95  CA        -8.2220   76.0050    6.7420 C.3    91  THR91       0.1897
     96  C         -8.1440   76.3280    8.2090 C.2    91  THR91       0.2313
     97  O         -7.3450   77.1920    8.6080 O.2    91  THR91      -0.2863
     98  CB        -9.0540   77.0920    6.0490 C.3    91  THR91       0.1794
     99  OG1       -9.5970   76.5730    4.8280 O.3    91  THR91      -0.2208
    100  CG2       -8.1770   78.3100    5.7310 C.3    91  THR91       0.0378
    101  N         -5.0280   75.0240    9.2730 N.3    94  LYS94      -0.1245
    102  CA        -3.9310   75.7960    8.6810 C.3    94  LYS94       0.1561
    103  C         -3.6810   77.0240    9.5400 C.2    94  LYS94       0.2260
    104  O         -2.5270   77.3400    9.9250 O.2    94  LYS94      -0.2867
    105  CB        -4.2680   76.2240    7.2540 C.3    94  LYS94       0.0271
    106  CG        -3.8470   75.2120    6.2080 C.3    94  LYS94       0.0035
    107  CD        -4.3830   75.6200    4.8590 C.3    94  LYS94       0.0206
    108  CE        -3.8260   74.7750    3.7300 C.3    94  LYS94       0.1093
    109  NZ        -4.3860   75.2380    2.4400 N.3    94  LYS94      -0.1314
    110  N         -1.6560   79.9870    1.0400 N.3   102  ASN102     -0.1240
    111  CA        -2.5540   80.5350    0.0260 C.3   102  ASN102      0.1653
    112  C         -3.0090   81.9430    0.4370 C.2   102  ASN102      0.2266
    113  O         -3.0010   82.2890    1.6050 O.2   102  ASN102     -0.2867
    114  CB        -3.7460   79.5940   -0.1820 C.3   102  ASN102      0.1155
    115  CG        -4.5590   79.3990    1.0690 C.2   102  ASN102      0.2627
    116  OD1       -4.9660   80.3630    1.7170 O.2   102  ASN102     -0.2716
    117  ND2       -4.8150   78.1470    1.4160 N.am  102  ASN102     -0.0877
    118  N        -17.6990   75.3550    9.1590 N.3   122  ALA122     -0.1231
    119  CA       -18.8080   74.7560    8.4280 C.3   122  ALA122      0.1694
    120  C        -18.4370   73.4460    7.7530 C.2   122  ALA122      0.2592
    121  O        -18.3950   73.3480    6.5350 O.2   122  ALA122     -0.2718
    122  CB       -19.3330   75.7390    7.3960 C.3   122  ALA122      0.0304
    123  N        -18.1700   72.4280    8.5470 N.am  123  MET123     -0.1965
    124  CA       -17.8160   71.1460    7.9850 C.3   123  MET123      0.1736
    125  C        -19.0200   70.2240    7.9310 C.2   123  MET123      0.2616
    126  O        -20.1030   70.6240    7.5070 O.2   123  MET123     -0.2715
    127  CB       -16.7120   70.5270    8.8130 C.3   123  MET123      0.0427
    128  CG       -16.4250   71.3450   10.0260 C.3   123  MET123      0.0599
    129  SD       -14.9990   70.7620   10.9350 S.3   123  MET123     -0.1393
    130  CE       -14.2640   72.4340   11.3160 C.3   123  MET123      0.0692
    131  N        -18.8180   68.9870    8.3590 N.am  124  ASN124     -0.1972
    132  CA       -19.8580   67.9720    8.3570 C.3   124  ASN124      0.1688
    133  C        -19.8560   67.2990    9.7190 C.2   124  ASN124      0.2292
    134  O        -18.8160   67.2440   10.3830 O.2   124  ASN124     -0.2864
    135  CB       -19.5680   66.9530    7.2420 C.3   124  ASN124      0.1181
    136  CG       -20.0660   65.5490    7.5670 C.2   124  ASN124      0.2629
    137  OD1      -19.4920   64.8380    8.4100 O.2   124  ASN124     -0.2716
    138  ND2      -21.1390   65.1390    6.8900 N.am  124  ASN124     -0.0877
    139  N        -16.5730   65.1670   10.4480 N.3   127  MET127     -0.1245
    140  CA       -15.3900   66.0090   10.6160 C.3   127  MET127      0.1570
    141  C        -15.4890   66.8760   11.8550 C.2   127  MET127      0.2261
    142  O        -14.4820   67.1480   12.5240 O.2   127  MET127     -0.2867
    143  CB       -15.1730   66.9090    9.3870 C.3   127  MET127      0.0387
    144  CG       -14.8320   66.1860    8.0850 C.3   127  MET127      0.0595
    145  SD       -14.4380   67.3570    6.7650 S.3   127  MET127     -0.1393
    146  CE       -16.1020   67.7940    6.1320 C.3   127  MET127      0.0692
@<TRIPOS>BOND
     1    61    59   ar
     2    61    60   ar
     3    39    38   ar
     4    59    57   ar
     5    60    58   ar
     6    38    40   ar
     7    38    37    1
     8    57    58   ar
     9    57    56    1
    10    55    54    2
    11    53    54    1
    12    53    52    1
    13    53    56    1
    14    54    62   am
    15    51    49    1
    16    37    36    1
    17    64    65    2
    18    64    63    1
    19    48    49    2
    20    48    47    1
    21    49    50    1
    22    35    34    2
    23    62    63    1
    24    36    33    1
    25    63    66    1
    26    47    46    1
    27    33    34    1
    28    33    32    1
    29    34    41   am
    30    44    43    2
    31    41    42    1
    32    42    43    1
    33    42    45    1
    34    28    27    2
    35    32    27   am
    36    66    67    1
    37    46    45    1
    38    68    67   ar
    39    68    70   ar
    40    27    26    1
    41    67    69   ar
    42    70    72   ar
    43    69    71   ar
    44    72    71   ar
    45    26    25    1
    46    26    29    1
    47    30    29    1
    48    29    31    1
    49    23    22    1
    50    21    20    2
    51   114   111    1
    52   114   115    1
    53   111   112    1
    54   111   110    1
    55     9    10    1
    56     9     8    1
    57    19    22    1
    58    19    20    1
    59    19    18    1
    60     4     3    2
    61    22    24    1
    62    15    14    2
    63   112   113    2
    64    11    10    2
    65    10    12   am
    66     8     3   am
    67     3     2    1
    68    18    14   am
    69    14    13    1
    70   115   117   am
    71   115   116    2
    72    12    13    1
    73     2     1    1
    74     2     5    1
    75    13    16    1
    76   109   108    1
    77     5     7    1
    78     5     6    1
    79    16    17    1
    80    80    78   ar
    81    93    91   am
    82   108   107    1
    83    91    92    2
    84    91    90    1
    85    78    77    1
    86    78    79   ar
    87    99    98    1
    88   107   106    1
    89    90    87    1
    90    77    74    1
    91   100    98    1
    92    98    95    1
    93   146   145    1
    94   106   105    1
    95    74    73    1
    96    74    75    1
    97    94    95    1
    98    94    88   am
    99   121   120    2
   100    87    88    1
   101    87    86    1
   102    95    96    1
   103   145   144    1
   104   138   136   am
   105    88    89    2
   106    86    83   am
   107   135   136    1
   108   135   132    1
   109   105   102    1
   110   122   119    1
   111    75    81   am
   112    75    76    2
   113   126   125    2
   114   136   137    2
   115    81    82    1
   116   120   119    1
   117   120   123   am
   118   125   124    1
   119   125   131   am
   120   124   123    1
   121   124   127    1
   122   144   143    1
   123    96    97    2
   124    83    82    1
   125    83    84    2
   126   132   131    1
   127   132   133    1
   128   119   118    1
   129    82    85    1
   130   102   101    1
   131   102   103    1
   132   127   128    1
   133   143   140    1
   134   103   104    2
   135   133   134    2
   136   128   129    1
   137   139   140    1
   138   140   141    1
   139   129   130    1
   140   141   142    2
