@<TRIPOS>MOLECULE
tmp/1qzyA00.pdb
 186 178 0 0 0
SMALL
GASTEIGER

@<TRIPOS>ATOM
      1  N         23.8790   31.1460    9.7510 N.3    96  PHE96      -0.1241
      2  CA        23.9400   31.9570   10.9590 C.3    96  PHE96       0.1605
      3  C         25.3520   31.9140   11.5410 C.2    96  PHE96       0.2264
      4  O         26.1660   31.0840   11.1380 O.2    96  PHE96      -0.2867
      5  CB        22.8770   31.4980   11.9810 C.3    96  PHE96       0.0534
      6  CG        22.9020   30.0200   12.3090 C.ar   96  PHE96      -0.0203
      7  CD1       23.7480   29.5200   13.2950 C.ar   96  PHE96      -0.0042
      8  CD2       22.0510   29.1320   11.6440 C.ar   96  PHE96      -0.0042
      9  CE1       23.7370   28.1610   13.6290 C.ar   96  PHE96      -0.0003
     10  CE2       22.0340   27.7720   11.9700 C.ar   96  PHE96      -0.0003
     11  CZ        22.8810   27.2840   12.9620 C.ar   96  PHE96      -0.0000
     12  N         24.2250   29.1030   24.7880 N.3   107  ALA107     -0.1231
     13  CA        23.9950   29.4190   23.3850 C.3   107  ALA107      0.1694
     14  C         24.0610   30.9020   23.0400 C.2   107  ALA107      0.2592
     15  O         24.0460   31.7680   23.9120 O.2   107  ALA107     -0.2718
     16  CB        22.6280   28.8640   22.9620 C.3   107  ALA107      0.0304
     17  N         24.1310   31.1600   21.7380 N.am  108  HIS108     -0.1976
     18  CA        24.1370   32.5020   21.1770 C.3   108  HIS108      0.1656
     19  C         25.3440   33.3900   21.4480 C.2   108  HIS108      0.2291
     20  O         25.2480   34.6140   21.3730 O.2   108  HIS108     -0.2864
     21  CB        22.8450   33.2190   21.5830 C.3   108  HIS108      0.0771
     22  CG        21.6000   32.4720   21.2070 C.ar  108  HIS108      0.0820
     23  ND1       20.3350   32.9740   21.4210 N.ar  108  HIS108     -0.2267
     24  CD2       21.4310   31.2510   20.6460 C.ar  108  HIS108      0.1154
     25  CE1       19.4380   32.0960   21.0090 C.ar  108  HIS108      0.1986
     26  NE2       20.0760   31.0400   20.5350 N.ar  108  HIS108     -0.2212
     27  N         27.9210   25.5300   17.4420 N.3   128  ASP128     -0.1239
     28  CA        26.6220   25.4960   16.7790 C.3   128  ASP128      0.1674
     29  C         26.7010   26.4260   15.5730 C.2   128  ASP128      0.2266
     30  O         26.7120   27.6440   15.7300 O.2   128  ASP128     -0.2867
     31  CB        25.5610   25.9930   17.7660 C.3   128  ASP128      0.1410
     32  CG        24.1450   25.7770   17.2760 C.2   128  ASP128      0.3668
     33  OD1       23.9510   25.5510   16.0640 O.co2 128  ASP128     -0.2456
     34  OD2       23.2250   25.8440   18.1160 O.co2 128  ASP128     -0.2456
     35  N         20.7250   23.3650   10.7180 N.3   139  ASP139     -0.1239
     36  CA        21.0260   23.8500   12.0630 C.3   139  ASP139      0.1674
     37  C         21.5250   22.5890   12.7590 C.2   139  ASP139      0.2266
     38  O         20.7480   21.6740   13.0220 O.2   139  ASP139     -0.2867
     39  CB        19.7470   24.3640   12.7330 C.3   139  ASP139      0.1410
     40  CG        20.0220   25.1280   14.0090 C.2   139  ASP139      0.3668
     41  OD1       21.1730   25.0820   14.4960 O.co2 139  ASP139     -0.2456
     42  OD2       19.0830   25.7660   14.5250 O.co2 139  ASP139     -0.2456
     43  N         13.9940   26.6010   29.3020 N.3   204  ASN204     -0.1225
     44  CA        13.5940   27.6930   28.4210 C.3   204  ASN204      0.1785
     45  C         14.3720   27.7920   27.1110 C.2   204  ASN204      0.2597
     46  O         14.4600   28.8600   26.5070 O.2   204  ASN204     -0.2718
     47  CB        13.5840   29.0400   29.1710 C.3   204  ASN204      0.1169
     48  CG        14.9450   29.4510   29.6960 C.2   204  ASN204      0.2627
     49  OD1       15.7790   28.6150   30.0300 O.2   204  ASN204     -0.2716
     50  ND2       15.1590   30.7610   29.8020 N.am  204  ASN204     -0.0877
     51  N         14.9290   26.6620   26.6790 N.am  205  LEU205     -0.1966
     52  CA        15.6420   26.5600   25.4050 C.3   205  LEU205      0.1728
     53  C         14.9160   25.4570   24.6420 C.2   205  LEU205      0.2616
     54  O         14.5350   24.4420   25.2310 O.2   205  LEU205     -0.2715
     55  CB        17.1110   26.1840   25.6100 C.3   205  LEU205      0.0311
     56  CG        18.0000   27.2920   26.1810 C.3   205  LEU205      0.0022
     57  CD1       19.4430   26.8110   26.2190 C.3   205  LEU205      0.0001
     58  CD2       17.8920   28.5440   25.3170 C.3   205  LEU205      0.0001
     59  N         14.7220   25.6370   23.3400 N.am  206  ASN206     -0.1958
     60  CA        13.9770   24.6390   22.5810 C.3   206  ASN206      0.1819
     61  C         14.4470   24.3750   21.1640 C.2   206  ASN206      0.2622
     62  O         15.2780   25.0990   20.6110 O.2   206  ASN206     -0.2715
     63  CB        12.5020   25.0500   22.4740 C.3   206  ASN206      0.1195
     64  CG        11.9660   25.6760   23.7410 C.2   206  ASN206      0.2630
     65  OD1       12.2590   26.8340   24.0550 O.2   206  ASN206     -0.2716
     66  ND2       11.1700   24.9170   24.4760 N.am  206  ASN206     -0.0877
     67  N         13.8760   23.3170   20.5930 N.am  207  GLY207     -0.1940
     68  CA        14.1260   22.9530   19.2150 C.3   207  GLY207      0.2014
     69  C         13.0930   23.7680   18.4520 C.2   207  GLY207      0.2638
     70  O         12.3300   24.5130   19.0670 O.2   207  GLY207     -0.2714
     71  N         13.0140   23.6170   17.1380 N.am  208  HIS208     -0.1973
     72  CA        12.0810   24.4500   16.3910 C.3   208  HIS208      0.1656
     73  C         11.8770   24.0030   14.9590 C.2   208  HIS208      0.2291
     74  O         12.6850   23.2600   14.4050 O.2   208  HIS208     -0.2864
     75  CB        12.6360   25.8680   16.3740 C.3   208  HIS208      0.0771
     76  CG        14.0710   25.9270   15.9520 C.ar  208  HIS208      0.0820
     77  ND1       14.4620   26.0420   14.6290 N.ar  208  HIS208     -0.2267
     78  CD2       15.2130   25.7900   16.6650 C.ar  208  HIS208      0.1154
     79  CE1       15.7730   25.9690   14.5530 C.ar  208  HIS208      0.1986
     80  NE2       16.2590   25.8140   15.7740 N.ar  208  HIS208     -0.2212
     81  N         15.1240   30.4880   10.1970 N.3   215  ILE215     -0.1231
     82  CA        15.6330   29.5150   11.1600 C.3   215  ILE215      0.1692
     83  C         14.5880   29.0900   12.1950 C.2   215  ILE215      0.2592
     84  O         14.5410   27.9240   12.5950 O.2   215  ILE215     -0.2718
     85  CB        16.9070   30.0640   11.8770 C.3   215  ILE215      0.0266
     86  CG1       17.5170   28.9790   12.7680 C.3   215  ILE215      0.0019
     87  CG2       16.5710   31.3040   12.6940 C.3   215  ILE215      0.0020
     88  CD1       18.1480   27.8410   11.9970 C.3   215  ILE215      0.0001
     89  N         13.7520   30.0340   12.6220 N.am  216  HIS216     -0.1976
     90  CA        12.7000   29.7640   13.5990 C.3   216  HIS216      0.1656
     91  C         11.3670   30.0300   12.9020 C.2   216  HIS216      0.2291
     92  O         10.8180   31.1260   12.9900 O.2   216  HIS216     -0.2864
     93  CB        12.8680   30.6830   14.8150 C.3   216  HIS216      0.0771
     94  CG        14.1200   30.4280   15.6010 C.ar  216  HIS216      0.0820
     95  ND1       14.6150   31.3190   16.5260 N.ar  216  HIS216     -0.2267
     96  CD2       14.9700   29.3690   15.6010 C.ar  216  HIS216      0.1154
     97  CE1       15.7200   30.8240   17.0640 C.ar  216  HIS216      0.1986
     98  NE2       15.9540   29.6470   16.5210 N.ar  216  HIS216     -0.2212
     99  N          7.0000   26.9850   15.0530 N.3   219  LYS219     -0.1231
    100  CA         6.7070   25.9360   16.0210 C.3   219  LYS219      0.1693
    101  C          7.9290   25.6830   16.8840 C.2   219  LYS219      0.2592
    102  O          9.0760   25.8910   16.4300 O.2   219  LYS219     -0.2718
    103  CB         6.2590   24.6520   15.3220 C.3   219  LYS219      0.0285
    104  CG         4.8760   24.7410   14.6820 C.3   219  LYS219      0.0035
    105  CD         4.4800   23.3990   14.0920 C.3   219  LYS219      0.0206
    106  CE         3.0690   23.4290   13.5390 C.3   219  LYS219      0.1093
    107  NZ         2.7040   22.1220   12.9360 N.3   219  LYS219     -0.1314
    108  N          7.6740   25.1960   18.0920 N.am  220  THR220     -0.1953
    109  CA         8.6970   24.9980   19.0930 C.3   220  THR220      0.1897
    110  C          8.7110   23.5440   19.5410 C.2   220  THR220      0.2313
    111  O          7.6440   22.9430   19.6930 O.2   220  THR220     -0.2863
    112  CB         8.3200   25.9450   20.2650 C.3   220  THR220      0.1794
    113  OG1        8.4690   27.3110   19.8530 O.3   220  THR220     -0.2208
    114  CG2        9.1080   25.6790   21.5020 C.3   220  THR220      0.0378
    115  N         17.1100   19.9150   19.1150 N.3   241  GLU241     -0.1245
    116  CA        18.2870   20.2090   19.9170 C.3   241  GLU241      0.1567
    117  C         17.9340   20.1480   21.3860 C.2   241  GLU241      0.2260
    118  O         16.8290   20.5190   21.7820 O.2   241  GLU241     -0.2867
    119  CB        18.8360   21.6020   19.5800 C.3   241  GLU241      0.0388
    120  CG        17.8820   22.7560   19.8600 C.3   241  GLU241      0.1160
    121  CD        18.3600   24.0650   19.2480 C.2   241  GLU241      0.3649
    122  OE1       19.4790   24.5070   19.5830 O.co2 241  GLU241     -0.2457
    123  OE2       17.6210   24.6500   18.4230 O.co2 241  GLU241     -0.2457
    124  N         19.6130   20.6880   25.5370 N.3   243  PHE243     -0.1241
    125  CA        20.6740   21.2510   26.3660 C.3   243  PHE243      0.1605
    126  C         20.5780   20.6590   27.7690 C.2   243  PHE243      0.2264
    127  O         19.4940   20.6070   28.3530 O.2   243  PHE243     -0.2867
    128  CB        20.5400   22.7770   26.4960 C.3   243  PHE243      0.0534
    129  CG        20.6980   23.5310   25.2040 C.ar  243  PHE243     -0.0203
    130  CD1       19.6440   23.6350   24.3040 C.ar  243  PHE243     -0.0042
    131  CD2       21.8990   24.1710   24.9060 C.ar  243  PHE243     -0.0042
    132  CE1       19.7830   24.3650   23.1280 C.ar  243  PHE243     -0.0003
    133  CE2       22.0470   24.9060   23.7280 C.ar  243  PHE243     -0.0003
    134  CZ        20.9860   25.0030   22.8410 C.ar  243  PHE243     -0.0000
    135  N         24.9220   38.4560   18.1510 N.3   259  HIS259     -0.1241
    136  CA        23.9540   37.9270   17.1810 C.3   259  HIS259      0.1621
    137  C         22.7490   38.8460   16.9470 C.2   259  HIS259      0.2264
    138  O         22.1790   39.3770   17.8970 O.2   259  HIS259     -0.2867
    139  CB        23.4000   36.5730   17.6570 C.3   259  HIS259      0.0745
    140  CG        24.3740   35.4370   17.5980 C.ar  259  HIS259      0.0817
    141  ND1       25.5840   35.4470   18.2660 N.ar  259  HIS259     -0.2268
    142  CD2       24.2810   34.2140   17.0190 C.ar  259  HIS259      0.1154
    143  CE1       26.1850   34.2830   18.1050 C.ar  259  HIS259      0.1986
    144  NE2       25.4130   33.5150   17.3530 N.ar  259  HIS259     -0.2212
    145  N         19.2240   39.4420   13.9490 N.3   261  MET261     -0.1245
    146  CA        18.4890   38.8890   12.8180 C.3   261  MET261      0.1570
    147  C         17.2380   39.7240   12.5550 C.2   261  MET261      0.2261
    148  O         16.5070   40.0750   13.4780 O.2   261  MET261     -0.2867
    149  CB        18.1100   37.4250   13.0950 C.3   261  MET261      0.0387
    150  CG        17.4870   36.6920   11.9060 C.3   261  MET261      0.0595
    151  SD        17.2820   34.9120   12.2310 S.3   261  MET261     -0.1393
    152  CE        16.0000   34.9300   13.5050 C.3   261  MET261      0.0692
    153  N         20.3370   35.1550   10.1070 N.3   291  ALA291     -0.1245
    154  CA        21.0510   35.8340   11.1820 C.3   291  ALA291      0.1562
    155  C         22.4820   36.1960   10.8070 C.2   291  ALA291      0.2260
    156  O         23.0860   35.5770    9.9330 O.2   291  ALA291     -0.2867
    157  CB        21.0500   34.9720   12.4330 C.3   291  ALA291      0.0290
    158  N         19.9670   38.9300   19.7070 N.3   321  TYR321     -0.1241
    159  CA        19.9320   37.6150   20.3450 C.3   321  TYR321      0.1605
    160  C         21.1780   37.4740   21.2110 C.2   321  TYR321      0.2264
    161  O         22.1680   36.8680   20.8010 O.2   321  TYR321     -0.2867
    162  CB        19.8940   36.5020   19.2890 C.3   321  TYR321      0.0534
    163  CG        18.6000   36.4470   18.5090 C.ar  321  TYR321     -0.0201
    164  CD1       18.3500   37.3400   17.4680 C.ar  321  TYR321     -0.0009
    165  CD2       17.6090   35.5240   18.8370 C.ar  321  TYR321     -0.0009
    166  CE1       17.1440   37.3190   16.7740 C.ar  321  TYR321      0.0417
    167  CE2       16.3970   35.4920   18.1480 C.ar  321  TYR321      0.0417
    168  CZ        16.1720   36.3940   17.1200 C.ar  321  TYR321      0.1957
    169  OH        14.9710   36.3840   16.4500 O.3   321  TYR321     -0.2866
    170  N         22.9360   33.3520   26.0970 N.3   324  LEU324     -0.1245
    171  CA        22.0220   32.7880   27.0950 C.3   324  LEU324      0.1561
    172  C         22.8340   31.8840   28.0090 C.2   324  LEU324      0.2260
    173  O         23.4260   30.9020   27.5640 O.2   324  LEU324     -0.2867
    174  CB        20.9250   32.0020   26.3910 C.3   324  LEU324      0.0270
    175  CG        20.1180   32.8570   25.4040 C.3   324  LEU324      0.0019
    176  CD1       19.1430   31.9870   24.6410 C.3   324  LEU324      0.0001
    177  CD2       19.3900   33.9580   26.1630 C.3   324  LEU324      0.0001
    178  N         22.5590   18.8330   18.4370 N.3   336  GLU336     -0.1245
    179  CA        21.4340   19.2070   17.5960 C.3   336  GLU336      0.1567
    180  C         21.5570   18.6700   16.1780 C.2   336  GLU336      0.2260
    181  O         22.6520   18.6080   15.6230 O.2   336  GLU336     -0.2867
    182  CB        21.3450   20.7350   17.5530 C.3   336  GLU336      0.0388
    183  CG        20.3710   21.3110   16.5450 C.3   336  GLU336      0.1160
    184  CD        20.3470   22.8240   16.5990 C.2   336  GLU336      0.3649
    185  OE1       21.4210   23.4190   16.8310 O.co2 336  GLU336     -0.2457
    186  OE2       19.2660   23.4170   16.4090 O.co2 336  GLU336     -0.2457
@<TRIPOS>BOND
     1     1     2    1
     2   156   155    2
     3   153   154    1
     4    81    82    1
     5    35    36    1
     6   155   154    1
     7     2     3    1
     8     2     5    1
     9     4     3    2
    10    82    85    1
    11    82    83    1
    12   154   157    1
    13     8    10   ar
    14     8     6   ar
    15    85    87    1
    16    85    86    1
    17   150   151    1
    18   150   149    1
    19    10    11   ar
    20     5     6    1
    21    88    86    1
    22    36    39    1
    23    36    37    1
    24    83    84    2
    25    83    89   am
    26   151   152    1
    27     6     7   ar
    28   147   146    1
    29   147   148    2
    30    89    90    1
    31    39    40    1
    32    37    38    2
    33   146   149    1
    34   146   145    1
    35    91    92    2
    36    91    90    1
    37   107   106    1
    38    11     9   ar
    39     7     9   ar
    40   106   105    1
    41    90    93    1
    42    40    41   ar
    43    40    42   ar
    44   105   104    1
    45    74    73    2
    46    79    77   ar
    47    79    80   ar
    48    77    76   ar
    49   104   103    1
    50    93    94    1
    51    73    72    1
    52    99   100    1
    53   103   100    1
    54    29    30    2
    55    29    28    1
    56    94    96   ar
    57    94    95   ar
    58    96    98   ar
    59   181   180    2
    60    80    78   ar
    61    76    75    1
    62    76    78   ar
    63   100   101    1
    64    33    32   ar
    65   180   179    1
    66    75    72    1
    67    72    71    1
    68   186   184   ar
    69   102   101    2
    70   169   168    1
    71    98    97   ar
    72    95    97   ar
    73   183   184    1
    74   183   182    1
    75   184   185   ar
    76   166   168   ar
    77   166   164   ar
    78    28    27    1
    79    28    31    1
    80   101   108   am
    81   137   136    1
    82   137   138    2
    83   142   144   ar
    84   142   140   ar
    85   168   167   ar
    86    71    69   am
    87   136   139    1
    88   136   135    1
    89    32    31    1
    90    32    34   ar
    91   144   143   ar
    92   164   163   ar
    93   182   179    1
    94   179   178    1
    95   140   139    1
    96   140   141   ar
    97   108   109    1
    98   143   141   ar
    99   167   165   ar
   100   123   121   ar
   101    69    70    2
   102    69    68    1
   103   163   165   ar
   104   163   162    1
   105   109   110    1
   106   109   112    1
   107   115   116    1
   108    68    67    1
   109   121   122   ar
   110   121   120    1
   111   162   159    1
   112   110   111    2
   113   119   120    1
   114   119   116    1
   115   158   159    1
   116   113   112    1
   117   116   117    1
   118   112   114    1
   119   159   160    1
   120    26    24   ar
   121    26    25   ar
   122    67    61   am
   123    62    61    2
   124    24    22   ar
   125   161   160    2
   126    25    23   ar
   127    61    60    1
   128    18    19    1
   129    18    21    1
   130    18    17    1
   131    22    23   ar
   132    22    21    1
   133    20    19    2
   134   117   118    2
   135    17    14   am
   136    63    60    1
   137    63    64    1
   138    60    59    1
   139   134   132   ar
   140   134   133   ar
   141    16    13    1
   142    14    13    1
   143    14    15    2
   144   132   130   ar
   145    59    53   am
   146    13    12    1
   147   133   131   ar
   148    64    65    2
   149    64    66   am
   150   130   129   ar
   151   176   175    1
   152    53    54    2
   153    53    52    1
   154   131   129   ar
   155   129   128    1
   156    58    56    1
   157   175   177    1
   158   175   174    1
   159    52    55    1
   160    52    51    1
   161   124   125    1
   162    55    56    1
   163   170   171    1
   164    56    57    1
   165   125   128    1
   166   125   126    1
   167   174   171    1
   168    46    45    2
   169    51    45   am
   170   171   172    1
   171    45    44    1
   172   173   172    2
   173   126   127    2
   174    44    47    1
   175    44    43    1
   176    47    48    1
   177    48    50   am
   178    48    49    2
