@<TRIPOS>MOLECULE
tmp/1r00A00.pdb
 183 181 0 0 0
SMALL
GASTEIGER

@<TRIPOS>ATOM
      1  N         14.8300   25.1700   38.2650 N.3   136  TRP136     -0.1241
      2  CA        16.2600   24.8800   38.3510 C.3   136  TRP136      0.1605
      3  C         16.6270   23.5080   37.8000 C.2   136  TRP136      0.2264
      4  O         17.6690   23.3640   37.1650 O.2   136  TRP136     -0.2867
      5  CB        16.7720   25.0580   39.7730 C.3   136  TRP136      0.0550
      6  CG        16.7210   26.4530   40.1840 C.ar  136  TRP136      0.0003
      7  CD1       15.9270   26.9860   41.1530 C.ar  136  TRP136      0.0946
      8  CD2       17.4520   27.5390   39.6120 C.ar  136  TRP136      0.0152
      9  NE1       16.1350   28.3400   41.2410 N.ar  136  TRP136     -0.2442
     10  CE2       17.0670   28.7100   40.2990 C.ar  136  TRP136      0.0810
     11  CE3       18.4070   27.6430   38.5890 C.ar  136  TRP136      0.0012
     12  CZ2       17.6140   29.9910   40.0010 C.ar  136  TRP136      0.0191
     13  CZ3       18.9490   28.9160   38.2800 C.ar  136  TRP136      0.0001
     14  CH2       18.5480   30.0730   39.0000 C.ar  136  TRP136      0.0015
     15  N         24.6850   39.3400   37.8920 N.3   155  CYS155     -0.1235
     16  CA        25.6030   38.4820   38.6570 C.3   155  CYS155      0.1677
     17  C         26.5390   37.6810   37.7570 C.2   155  CYS155      0.2270
     18  O         27.6320   37.2950   38.1800 O.2   155  CYS155     -0.2867
     19  CB        24.8310   37.5510   39.5900 C.3   155  CYS155      0.0956
     20  SG        24.1430   38.4420   41.0030 S.3   155  CYS155     -0.0801
     21  N         31.2110   39.7860   41.6770 N.3   161  TYR161     -0.1241
     22  CA        31.3920   39.3120   43.0460 C.3   161  TYR161      0.1605
     23  C         32.5550   39.9840   43.7790 C.2   161  TYR161      0.2264
     24  O         32.8230   39.6510   44.9220 O.2   161  TYR161     -0.2867
     25  CB        31.5620   37.7850   43.0540 C.3   161  TYR161      0.0534
     26  CG        30.3160   37.0630   42.6140 C.ar  161  TYR161     -0.0201
     27  CD1       30.1480   36.6580   41.2960 C.ar  161  TYR161     -0.0009
     28  CD2       29.2980   36.8020   43.5100 C.ar  161  TYR161     -0.0009
     29  CE1       28.9840   36.0060   40.8910 C.ar  161  TYR161      0.0417
     30  CE2       28.1480   36.1580   43.1190 C.ar  161  TYR161      0.0417
     31  CZ        27.9940   35.7590   41.8110 C.ar  161  TYR161      0.1957
     32  OH        26.8410   35.1090   41.4270 O.3   161  TYR161     -0.2866
     33  N         29.8060   26.0320   49.7390 N.3   178  ASP178     -0.1239
     34  CA        29.0850   26.9910   48.9350 C.3   178  ASP178      0.1674
     35  C         27.8380   26.2510   48.4410 C.2   178  ASP178      0.2266
     36  O         27.8840   25.4970   47.4650 O.2   178  ASP178     -0.2867
     37  CB        30.0290   27.4460   47.8200 C.3   178  ASP178      0.1410
     38  CG        29.4170   28.4520   46.8900 C.2   178  ASP178      0.3668
     39  OD1       28.3240   28.9800   47.1800 O.co2 178  ASP178     -0.2456
     40  OD2       29.9870   28.7780   45.8280 O.co2 178  ASP178     -0.2456
     41  N         24.6320   25.6180   46.6360 N.3   180  GLY180     -0.1210
     42  CA        23.9730   26.1770   45.4740 C.3   180  GLY180      0.1956
     43  C         24.7940   27.2660   44.8020 C.2   180  GLY180      0.2612
     44  O         24.2560   28.2910   44.3860 O.2   180  GLY180     -0.2717
     45  N         26.0910   27.0260   44.6520 N.am  181  GLY181     -0.1942
     46  CA        27.0260   28.0610   44.2710 C.3   181  GLY181      0.2014
     47  C         26.9780   28.4800   42.8190 C.2   181  GLY181      0.2639
     48  O         27.6840   29.4080   42.4200 O.2   181  GLY181     -0.2714
     49  N         26.1530   27.7980   42.0290 N.am  182  GLY182     -0.1939
     50  CA        25.9960   28.0930   40.6110 C.3   182  GLY182      0.2014
     51  C         27.2930   27.7810   39.9120 C.2   182  GLY182      0.2638
     52  O         27.8870   26.7400   40.1670 O.2   182  GLY182     -0.2714
     53  N         27.7590   28.6940   39.0680 N.am  183  ASN183     -0.1972
     54  CA        29.0230   28.4800   38.3650 C.3   183  ASN183      0.1688
     55  C         30.2510   28.9110   39.1530 C.2   183  ASN183      0.2292
     56  O         31.3590   28.7860   38.6470 O.2   183  ASN183     -0.2864
     57  CB        29.0320   29.0990   36.9550 C.3   183  ASN183      0.1181
     58  CG        28.4170   30.4640   36.9040 C.2   183  ASN183      0.2629
     59  OD1       27.3360   30.6410   36.3170 O.2   183  ASN183     -0.2716
     60  ND2       29.0830   31.4480   37.5210 N.am  183  ASN183     -0.0877
     61  N         31.0620   31.9770   40.8910 N.3   185  GLY185     -0.1210
     62  CA        31.5010   33.3630   40.9450 C.3   185  GLY185      0.1956
     63  C         32.0050   33.8440   42.3030 C.2   185  GLY185      0.2611
     64  O         33.1680   34.2280   42.4410 O.2   185  GLY185     -0.2717
     65  N         31.1350   33.8320   43.3040 N.am  186  MET186     -0.1979
     66  CA        31.5010   34.2170   44.6550 C.3   186  MET186      0.1605
     67  C         32.6250   33.3940   45.2400 C.2   186  MET186      0.2287
     68  O         33.4820   33.9440   45.9270 O.2   186  MET186     -0.2864
     69  CB        30.3030   34.1370   45.5960 C.3   186  MET186      0.0413
     70  CG        30.5560   34.7810   46.9560 C.3   186  MET186      0.0598
     71  SD        31.1540   36.4880   46.8350 S.3   186  MET186     -0.1393
     72  CE        31.5660   36.8190   48.5790 C.3   186  MET186      0.0692
     73  N         28.2660   22.9140   46.0650 N.3   202  VAL202     -0.1231
     74  CA        27.2090   21.9370   45.8550 C.3   202  VAL202      0.1692
     75  C         26.2200   22.4610   44.8170 C.2   202  VAL202      0.2592
     76  O         25.6140   23.5120   44.9960 O.2   202  VAL202     -0.2718
     77  CB        26.4480   21.6140   47.1670 C.3   202  VAL202      0.0266
     78  CG1       25.2780   20.6990   46.8890 C.3   202  VAL202      0.0020
     79  CG2       27.3870   20.9890   48.2030 C.3   202  VAL202      0.0020
     80  N         26.0680   21.7350   43.7180 N.am  203  GLU203     -0.1966
     81  CA        25.1860   22.1750   42.6410 C.3   203  GLU203      0.1733
     82  C         24.5050   20.9880   41.9500 C.2   203  GLU203      0.2616
     83  O         24.9140   19.8400   42.1190 O.2   203  GLU203     -0.2715
     84  CB        26.0010   22.9750   41.6240 C.3   203  GLU203      0.0429
     85  CG        25.8090   24.4920   41.6670 C.3   203  GLU203      0.1163
     86  CD        24.3460   24.9110   41.5270 C.2   203  GLU203      0.3649
     87  OE1       23.5890   24.1550   40.8670 O.co2 203  GLU203     -0.2457
     88  OE2       23.9560   25.9880   42.0830 O.co2 203  GLU203     -0.2457
     89  N         23.4500   21.2800   41.1980 N.am  204  LEU204     -0.1977
     90  CA        22.9300   20.3720   40.1690 C.3   204  LEU204      0.1596
     91  C         23.9940   20.2050   39.0930 C.2   204  LEU204      0.2287
     92  O         24.9890   20.9020   39.1040 O.2   204  LEU204     -0.2864
     93  CB        21.6320   20.9050   39.5590 C.3   204  LEU204      0.0297
     94  CG        20.5250   21.1670   40.5900 C.3   204  LEU204      0.0022
     95  CD1       19.3530   21.9010   39.9620 C.3   204  LEU204      0.0001
     96  CD2       20.1040   19.8400   41.3110 C.3   204  LEU204      0.0001
     97  N         25.0480   23.6480   36.3630 N.3   207  PRO207     -0.2116
     98  CA        25.9770   24.6460   36.9220 C.3   207  PRO207      0.1372
     99  C         27.2830   24.0540   37.4750 C.2   207  PRO207      0.2244
    100  O         28.2940   24.7260   37.4150 O.2   207  PRO207     -0.2868
    101  CB        25.1490   25.3350   38.0120 C.3   207  PRO207      0.0268
    102  CG        23.7270   25.0920   37.6100 C.3   207  PRO207      0.0207
    103  CD        23.7470   23.6730   37.0380 C.3   207  PRO207      0.0892
    104  N         25.1310   17.5000   43.9700 N.3   229  GLY229     -0.1210
    105  CA        24.3520   17.1630   45.1490 C.3   229  GLY229      0.1956
    106  C         23.0180   17.8660   45.1630 C.2   229  GLY229      0.2612
    107  O         22.7360   18.7030   44.3260 O.2   229  GLY229     -0.2717
    108  N         22.2040   17.5150   46.1370 N.am  230  ASP230     -0.1959
    109  CA        20.8620   18.0560   46.2750 C.3   230  ASP230      0.1840
    110  C         20.8310   18.6820   47.6700 C.2   230  ASP230      0.2622
    111  O         20.9200   17.9760   48.6560 O.2   230  ASP230     -0.2715
    112  CB        19.8640   16.8970   46.0910 C.3   230  ASP230      0.1450
    113  CG        18.3990   17.2920   46.2780 C.2   230  ASP230      0.3671
    114  OD1       18.0450   18.4830   46.4710 O.co2 230  ASP230     -0.2456
    115  OD2       17.5070   16.4290   46.2380 O.co2 230  ASP230     -0.2456
    116  N         20.7590   20.0100   47.7500 N.am  231  PHE231     -0.1960
    117  CA        20.8070   20.7000   49.0500 C.3   231  PHE231      0.1771
    118  C         19.5270   20.5680   49.9100 C.2   231  PHE231      0.2619
    119  O         19.4150   21.1700   50.9800 O.2   231  PHE231     -0.2715
    120  CB        21.3010   22.1660   48.9300 C.3   231  PHE231      0.0574
    121  CG        20.4580   23.0780   48.0720 C.ar  231  PHE231     -0.0200
    122  CD1       19.0730   23.0040   48.0400 C.ar  231  PHE231     -0.0042
    123  CD2       21.0810   24.0790   47.3120 C.ar  231  PHE231     -0.0042
    124  CE1       18.3400   23.8910   47.2480 C.ar  231  PHE231     -0.0003
    125  CE2       20.3500   24.9640   46.5280 C.ar  231  PHE231     -0.0003
    126  CZ        18.9940   24.8740   46.4930 C.ar  231  PHE231     -0.0000
    127  N         18.5810   19.7620   49.4280 N.am  232  PHE232     -0.1974
    128  CA        17.5270   19.1910   50.2720 C.3   232  PHE232      0.1639
    129  C         17.9680   17.8860   50.9650 C.2   232  PHE232      0.2290
    130  O         17.4350   17.5280   52.0290 O.2   232  PHE232     -0.2864
    131  CB        16.2440   18.9840   49.4520 C.3   232  PHE232      0.0560
    132  CG        15.6600   20.2580   48.9670 C.ar  232  PHE232     -0.0200
    133  CD1       15.6870   20.5970   47.6300 C.ar  232  PHE232     -0.0042
    134  CD2       15.1400   21.1580   49.8620 C.ar  232  PHE232     -0.0042
    135  CE1       15.1640   21.7950   47.1950 C.ar  232  PHE232     -0.0003
    136  CE2       14.6190   22.3600   49.4290 C.ar  232  PHE232     -0.0003
    137  CZ        14.6390   22.6750   48.0900 C.ar  232  PHE232     -0.0000
    138  N         24.7200   32.0890   48.5610 N.3   245  SER245     -0.1202
    139  CA        24.8110   33.3030   47.7410 C.3   245  SER245      0.2020
    140  C         23.6920   33.3470   46.6790 C.2   245  SER245      0.2619
    141  O         23.7090   32.5790   45.7040 O.2   245  SER245     -0.2717
    142  CB        26.1980   33.4120   47.0680 C.3   245  SER245      0.2103
    143  OG        26.1890   34.3640   45.9930 O.3   245  SER245     -0.2182
    144  N         22.7440   34.2690   46.8890 N.am  246  PHE246     -0.1961
    145  CA        21.5430   34.4290   46.0590 C.3   246  PHE246      0.1771
    146  C         20.8560   33.1270   45.8360 C.2   246  PHE246      0.2619
    147  O         20.5370   32.7940   44.7100 O.2   246  PHE246     -0.2715
    148  CB        21.8640   35.1080   44.7110 C.3   246  PHE246      0.0574
    149  CG        22.5160   36.4240   44.8760 C.ar  246  PHE246     -0.0200
    150  CD1       23.8720   36.5750   44.6600 C.ar  246  PHE246     -0.0042
    151  CD2       21.7830   37.5120   45.3270 C.ar  246  PHE246     -0.0042
    152  CE1       24.4910   37.8010   44.8510 C.ar  246  PHE246     -0.0003
    153  CE2       22.3820   38.7290   45.5200 C.ar  246  PHE246     -0.0003
    154  CZ        23.7510   38.8780   45.2850 C.ar  246  PHE246     -0.0000
    155  N         20.6170   32.4010   46.9260 N.am  247  VAL247     -0.1977
    156  CA        19.8850   31.1270   46.8790 C.3   247  VAL247      0.1596
    157  C         18.5080   31.1660   47.5560 C.2   247  VAL247      0.2287
    158  O         17.5160   30.6510   47.0070 O.2   247  VAL247     -0.2864
    159  CB        20.7170   30.0000   47.5100 C.3   247  VAL247      0.0276
    160  CG1       19.9330   28.6780   47.5390 C.3   247  VAL247      0.0022
    161  CG2       22.0350   29.8460   46.7520 C.3   247  VAL247      0.0022
    162  N         15.0340   32.3340   45.9940 N.3   250  ASN250     -0.1225
    163  CA        14.3590   31.4060   45.0790 C.3   250  ASN250      0.1785
    164  C         13.4030   30.3900   45.7330 C.2   250  ASN250      0.2597
    165  O         12.8510   29.5520   45.0300 O.2   250  ASN250     -0.2718
    166  CB        15.3640   30.5440   44.2770 C.3   250  ASN250      0.1169
    167  CG        16.4620   31.3360   43.5700 C.2   250  ASN250      0.2627
    168  OD1       17.5810   30.8400   43.4570 O.2   250  ASN250     -0.2716
    169  ND2       16.1490   32.5220   43.0590 N.am  250  ASN250     -0.0877
    170  N         13.2350   30.3960   47.0450 N.am  251  TRP251     -0.1976
    171  CA        12.5230   29.2870   47.6900 C.3   251  TRP251      0.1640
    172  C         11.4740   29.7740   48.6460 C.2   251  TRP251      0.2290
    173  O         11.5850   30.8540   49.1820 O.2   251  TRP251     -0.2864
    174  CB        13.4970   28.3320   48.3930 C.3   251  TRP251      0.0576
    175  CG        14.3860   27.6750   47.4300 C.ar  251  TRP251      0.0006
    176  CD1       15.6650   28.0260   47.1270 C.ar  251  TRP251      0.0946
    177  CD2       14.0650   26.5740   46.5810 C.ar  251  TRP251      0.0152
    178  NE1       16.1720   27.2000   46.1550 N.ar  251  TRP251     -0.2442
    179  CE2       15.2150   26.2910   45.8040 C.ar  251  TRP251      0.0810
    180  CE3       12.9230   25.7820   46.3980 C.ar  251  TRP251      0.0012
    181  CZ2       15.2500   25.2620   44.8540 C.ar  251  TRP251      0.0191
    182  CZ3       12.9670   24.7480   45.4610 C.ar  251  TRP251      0.0001
    183  CH2       14.1150   24.5060   44.7010 C.ar  251  TRP251      0.0015
@<TRIPOS>BOND
     1    59    58    2
     2    97    98    1
     3    97   103    1
     4    58    57    1
     5    58    60   am
     6    98    99    1
     7    98   101    1
     8    57    54    1
     9   103   102    1
    10     4     3    2
    11   100    99    2
    12   102   101    1
    13    17    18    2
    14    17    16    1
    15     3     2    1
    16    15    16    1
    17     1     2    1
    18    13    11   ar
    19    13    14   ar
    20     2     5    1
    21    54    53    1
    22    54    55    1
    23    11     8   ar
    24    56    55    2
    25    16    19    1
    26    14    12   ar
    27    53    51   am
    28    91    92    2
    29    91    90    1
    30    93    90    1
    31    93    94    1
    32    19    20    1
    33     8     6   ar
    34     8    10   ar
    35     5     6    1
    36    51    52    2
    37    51    50    1
    38    95    94    1
    39    12    10   ar
    40    90    89    1
    41     6     7   ar
    42    10     9   ar
    43    94    96    1
    44    50    49    1
    45    87    86   ar
    46    61    62    1
    47    29    27   ar
    48    29    31   ar
    49    62    63    1
    50     7     9   ar
    51    89    82   am
    52    27    26   ar
    53    32    31    1
    54    86    85    1
    55    86    88   ar
    56    84    85    1
    57    84    81    1
    58    21    22    1
    59    31    30   ar
    60    82    83    2
    61    82    81    1
    62    49    47   am
    63    63    64    2
    64    63    65   am
    65    48    47    2
    66    26    25    1
    67    26    28   ar
    68    81    80    1
    69    47    46    1
    70    22    25    1
    71    22    23    1
    72   169   167   am
    73    30    28   ar
    74    65    66    1
    75   168   167    2
    76   167   166    1
    77    80    75   am
    78    23    24    2
    79   104   105    1
    80    46    45    1
    81   166   163    1
    82   107   106    2
    83    44    43    2
    84    45    43   am
    85    66    67    1
    86    66    69    1
    87   150   152   ar
    88   150   149   ar
    89   183   181   ar
    90   183   182   ar
    91   147   146    2
    92   148   149    1
    93   148   145    1
    94    43    42    1
    95    75    76    2
    96    75    74    1
    97   152   154   ar
    98   181   179   ar
    99   149   151   ar
   100   165   164    2
   101   163   164    1
   102   163   162    1
   103   105   106    1
   104   106   108   am
   105    67    68    2
   106   154   153   ar
   107   151   153   ar
   108   182   180   ar
   109    42    41    1
   110    69    70    1
   111   141   140    2
   112   164   170   am
   113   179   178   ar
   114   179   177   ar
   115    40    38   ar
   116   146   145    1
   117   146   155   am
   118    74    73    1
   119    74    77    1
   120   143   142    1
   121   145   144    1
   122   112   109    1
   123   112   113    1
   124   108   109    1
   125   178   176   ar
   126   115   113   ar
   127   109   110    1
   128   113   114   ar
   129   180   177   ar
   130   126   125   ar
   131   126   124   ar
   132   125   123   ar
   133   177   175   ar
   134   140   144   am
   135   140   139    1
   136   161   159    1
   137    71    70    1
   138    71    72    1
   139   156   155    1
   140   156   159    1
   141   156   157    1
   142    78    77    1
   143    38    39   ar
   144    38    37    1
   145   158   157    2
   146   170   171    1
   147   142   139    1
   148   176   175   ar
   149    77    79    1
   150   135   133   ar
   151   135   137   ar
   152   124   122   ar
   153   123   121   ar
   154   175   174    1
   155    36    35    2
   156   159   160    1
   157   133   132   ar
   158   110   116   am
   159   110   111    2
   160   171   174    1
   161   171   172    1
   162   139   138    1
   163   116   117    1
   164    37    34    1
   165   122   121   ar
   166   121   120    1
   167   137   136   ar
   168    35    34    1
   169   172   173    2
   170   120   117    1
   171    34    33    1
   172   132   131    1
   173   132   134   ar
   174   117   118    1
   175   127   118   am
   176   127   128    1
   177   136   134   ar
   178   131   128    1
   179   118   119    2
   180   128   129    1
   181   129   130    2
