@<TRIPOS>MOLECULE
tmp/1r08A00.pdb
 243 232 0 0 0
SMALL
GASTEIGER

@<TRIPOS>ATOM
      1  N         47.7740   -1.2770  133.7030 N.3    86  TRP86      -0.1241
      2  CA        47.0070   -0.1250  133.3430 C.3    86  TRP86       0.1605
      3  C         45.5200   -0.4570  133.2810 C.2    86  TRP86       0.2264
      4  O         45.0830   -1.3270  132.5480 O.2    86  TRP86      -0.2867
      5  CB        47.4010    0.2120  131.9010 C.3    86  TRP86       0.0550
      6  CG        46.9170    1.5700  131.5240 C.ar   86  TRP86       0.0003
      7  CD1       46.5340    2.4930  132.3810 C.ar   86  TRP86       0.0946
      8  CD2       46.7910    2.0700  130.2060 C.ar   86  TRP86       0.0152
      9  NE1       46.1790    3.6300  131.6220 N.ar   86  TRP86      -0.2442
     10  CE2       46.3460    3.3730  130.3490 C.ar   86  TRP86       0.0810
     11  CE3       47.0220    1.5720  128.9120 C.ar   86  TRP86       0.0012
     12  CZ2       46.1350    4.2410  129.2830 C.ar   86  TRP86       0.0191
     13  CZ3       46.7920    2.4540  127.8320 C.ar   86  TRP86       0.0001
     14  CH2       46.3730    3.7270  128.0130 C.ar   86  TRP86       0.0015
     15  N         42.8060    0.2970  131.4160 N.3    88  ILE88      -0.1231
     16  CA        42.7000    1.1560  130.2050 C.3    88  ILE88       0.1692
     17  C         41.5610    2.1660  130.3220 C.2    88  ILE88       0.2592
     18  O         40.5370    1.9170  130.9590 O.2    88  ILE88      -0.2718
     19  CB        42.6010    0.2740  128.9790 C.3    88  ILE88       0.0266
     20  CG1       43.9750   -0.2270  128.5690 C.3    88  ILE88       0.0019
     21  CG2       42.0340    0.9790  127.7470 C.3    88  ILE88       0.0020
     22  CD1       43.9060   -1.2480  127.4380 C.3    88  ILE88       0.0001
     23  N         41.7730    3.2930  129.6740 N.am   89  ASN89      -0.1960
     24  CA        40.8820    4.4500  129.8210 C.3    89  ASN89       0.1819
     25  C         41.5820    5.6460  129.1540 C.2    89  ASN89       0.2621
     26  O         42.7710    5.6120  128.8700 O.2    89  ASN89      -0.2715
     27  CB        40.7270    4.6570  131.3340 C.3    89  ASN89       0.1195
     28  CG        41.8570    5.4960  131.9470 C.2    89  ASN89       0.2630
     29  OD1       42.0820    6.6160  131.5050 O.2    89  ASN89      -0.2716
     30  ND2       42.5820    5.0290  132.9520 N.am   89  ASN89      -0.0877
     31  N         40.9050    6.7560  128.8860 N.am   90  LEU90      -0.1963
     32  CA        41.5880    7.8740  128.1330 C.3    90  LEU90       0.1728
     33  C         41.5100    9.1980  128.8640 C.2    90  LEU90       0.2616
     34  O         42.3440   10.1030  128.6550 O.2    90  LEU90      -0.2715
     35  CB        40.8940    8.1040  126.7860 C.3    90  LEU90       0.0311
     36  CG        41.6720    7.5200  125.6150 C.3    90  LEU90       0.0022
     37  CD1       42.7790    6.5700  126.0680 C.3    90  LEU90       0.0001
     38  CD2       40.7900    6.7190  124.6560 C.3    90  LEU90       0.0001
     39  N         40.4960    9.2290  129.6600 N.am   91  SER91      -0.1950
     40  CA        40.1540   10.3530  130.5170 C.3    91  SER91       0.1924
     41  C         41.0600   10.4150  131.7600 C.2    91  SER91       0.2314
     42  O         40.7880   11.1110  132.7340 O.2    91  SER91      -0.2863
     43  CB        38.7120   10.1620  130.9930 C.3    91  SER91       0.2116
     44  OG        38.6700    9.2460  132.0820 O.3    91  SER91      -0.2180
     45  N         41.7630   14.8340  127.3090 N.3    97  ARG97      -0.1245
     46  CA        40.3920   14.6930  127.8640 C.3    97  ARG97       0.1563
     47  C         39.5290   15.8740  127.5790 C.2    97  ARG97       0.2260
     48  O         38.3360   15.7360  127.1420 O.2    97  ARG97      -0.2867
     49  CB        40.4200   14.3190  129.3240 C.3    97  ARG97       0.0307
     50  CG        39.0070   14.0550  129.8900 C.3    97  ARG97       0.0489
     51  CD        39.1620   13.7590  131.3510 C.3    97  ARG97       0.2205
     52  NE        37.8650   13.7830  132.0290 N.pl3  97  ARG97      -0.0865
     53  CZ        37.7480   13.2990  133.2760 C.cat  97  ARG97       0.5346
     54  NH1       38.7720   12.8540  133.9940 N.pl3  97  ARG97       0.1354
     55  NH2       36.4970   13.2280  133.7510 N.pl3  97  ARG97       0.1354
     56  N         38.3410   15.6890  123.9180 N.3   100  LEU100     -0.1231
     57  CA        37.3070   14.7330  123.6070 C.3   100  LEU100      0.1693
     58  C         35.9580   15.1450  124.1930 C.2   100  LEU100      0.2591
     59  O         34.9140   14.7910  123.6260 O.2   100  LEU100     -0.2718
     60  CB        37.6430   13.3460  124.1010 C.3   100  LEU100      0.0284
     61  CG        38.6870   12.5790  123.4710 C.3   100  LEU100      0.0019
     62  CD1       39.2910   11.5300  124.4120 C.3   100  LEU100      0.0001
     63  CD2       38.1090   11.8030  122.2800 C.3   100  LEU100      0.0001
     64  N         35.9910   15.8120  125.3340 N.am  101  GLU101     -0.1979
     65  CA        34.6570   16.0050  126.0320 C.3   101  GLU101      0.1602
     66  C         33.9540   17.2190  125.5130 C.2   101  GLU101      0.2287
     67  O         33.0550   17.7370  126.1670 O.2   101  GLU101     -0.2864
     68  CB        34.7720   15.9640  127.4960 C.3   101  GLU101      0.0415
     69  CG        35.4730   14.7400  128.1850 C.3   101  GLU101      0.1163
     70  CD        35.4000   14.8930  129.6580 C.2   101  GLU101      0.3649
     71  OE1       35.5070   14.1180  130.5610 O.co2 101  GLU101     -0.2457
     72  OE2       35.0350   16.1780  129.8850 O.co2 101  GLU101     -0.2457
     73  N         31.6350    9.5830  120.6320 N.3   106  VAL106     -0.1301
     74  CA        32.8590    9.7740  119.7030 C.3   106  VAL106      0.1246
     75  C         33.1220    8.4180  119.1970 C.3   106  VAL106      0.2009
     76  O         32.8230    7.4330  119.9740 O.3   106  VAL106     -0.2188
     77  CB        33.7880   10.4560  120.7150 C.3   106  VAL106      0.0202
     78  CG1       34.8210    9.5990  121.3160 C.3   106  VAL106      0.0016
     79  CG2       34.2390   11.7430  120.1250 C.3   106  VAL106      0.0016
     80  N         36.1090    6.1540  116.8630 N.3   108  PHE108     -0.1241
     81  CA        37.3910    6.2440  116.1280 C.3   108  PHE108      0.1605
     82  C         38.2100    4.9920  116.2830 C.2   108  PHE108      0.2264
     83  O         37.8890    4.1870  117.1770 O.2   108  PHE108     -0.2867
     84  CB        38.1500    7.5030  116.5710 C.3   108  PHE108      0.0534
     85  CG        38.2890    7.6720  118.0720 C.ar  108  PHE108     -0.0203
     86  CD1       39.1090    6.8110  118.7830 C.ar  108  PHE108     -0.0042
     87  CD2       37.6100    8.6970  118.7360 C.ar  108  PHE108     -0.0042
     88  CE1       39.2560    6.9560  120.1590 C.ar  108  PHE108     -0.0003
     89  CE2       37.7540    8.8440  120.1170 C.ar  108  PHE108     -0.0003
     90  CZ        38.5780    7.9700  120.8270 C.ar  108  PHE108     -0.0000
     91  N         42.1130    3.5610  117.1060 N.3   110  SER110     -0.1217
     92  CA        43.1960    4.1390  117.8910 C.3   110  SER110      0.1889
     93  C         44.5000    3.7140  117.3240 C.2   110  SER110      0.2288
     94  O         44.5920    2.5360  116.9230 O.2   110  SER110     -0.2866
     95  CB        43.1210    3.6710  119.3290 C.3   110  SER110      0.2089
     96  OG        41.8070    4.1000  119.7750 O.3   110  SER110     -0.2183
     97  N         48.3020    3.5480  118.6670 N.3   112  TYR112     -0.1241
     98  CA        49.0660    3.7660  119.8560 C.3   112  TYR112      0.1605
     99  C         50.5560    3.6600  119.5930 C.2   112  TYR112      0.2264
    100  O         51.0010    2.8370  118.7870 O.2   112  TYR112     -0.2867
    101  CB        48.7330    2.6400  120.8520 C.3   112  TYR112      0.0534
    102  CG        47.3920    2.8040  121.5630 C.ar  112  TYR112     -0.0201
    103  CD1       46.2370    2.2460  121.0050 C.ar  112  TYR112     -0.0009
    104  CD2       47.3240    3.4890  122.7800 C.ar  112  TYR112     -0.0009
    105  CE1       45.0120    2.3700  121.6660 C.ar  112  TYR112      0.0417
    106  CE2       46.0980    3.6110  123.4440 C.ar  112  TYR112      0.0417
    107  CZ        44.9420    3.0500  122.8880 C.ar  112  TYR112      0.1957
    108  OH        43.7530    3.1620  123.5360 O.3   112  TYR112     -0.2866
    109  N         54.1110    3.4560  121.9580 N.3   114  ILE114     -0.1245
    110  CA        54.5620    3.2370  123.3620 C.3   114  ILE114      0.1561
    111  C         56.0390    3.5370  123.4280 C.2   114  ILE114      0.2260
    112  O         56.8050    2.8120  122.7470 O.2   114  ILE114     -0.2867
    113  CB        54.2090    1.7670  123.7910 C.3   114  ILE114      0.0252
    114  CG1       52.7340    1.5180  123.5800 C.3   114  ILE114      0.0019
    115  CG2       54.6450    1.5390  125.2700 C.3   114  ILE114      0.0019
    116  CD1       52.1760    0.2210  124.2160 C.3   114  ILE114      0.0001
    117  N         54.1710   -6.2810  126.2220 N.3   134  ALA134     -0.1245
    118  CA        53.0240   -5.6520  126.8290 C.3   134  ALA134      0.1562
    119  C         51.7340   -5.9920  126.1450 C.2   134  ALA134      0.2260
    120  O         51.3330   -5.2800  125.2380 O.2   134  ALA134     -0.2867
    121  CB        53.2430   -4.1410  126.7870 C.3   134  ALA134      0.0290
    122  N         47.7280   -6.9460  125.8770 N.3   136  TYR136     -0.1241
    123  CA        46.3520   -6.4510  126.1580 C.3   136  TYR136      0.1605
    124  C         45.7380   -7.5250  127.0200 C.2   136  TYR136      0.2264
    125  O         46.0390   -8.7030  126.8730 O.2   136  TYR136     -0.2867
    126  CB        45.5100   -6.3490  124.8630 C.3   136  TYR136      0.0534
    127  CG        44.0360   -5.9120  125.0880 C.ar  136  TYR136     -0.0201
    128  CD1       42.9720   -6.5990  124.4620 C.ar  136  TYR136     -0.0009
    129  CD2       43.7380   -4.8170  125.9140 C.ar  136  TYR136     -0.0009
    130  CE1       41.6400   -6.1740  124.6480 C.ar  136  TYR136      0.0417
    131  CE2       42.4110   -4.3920  126.0930 C.ar  136  TYR136      0.0417
    132  CZ        41.3630   -5.0650  125.4580 C.ar  136  TYR136      0.1957
    133  OH        40.0790   -4.6360  125.6190 O.3   136  TYR136     -0.2866
    134  N         46.7020  -10.4100  121.8330 N.3   158  PRO158     -0.2102
    135  CA        47.7650   -9.7370  121.0380 C.3   158  PRO158      0.1504
    136  C         48.8380   -9.2250  121.9280 C.2   158  PRO158      0.2576
    137  O         48.4600   -8.5380  122.8690 O.2   158  PRO158     -0.2718
    138  CB        47.0230   -8.6550  120.2710 C.3   158  PRO158      0.0282
    139  CG        45.7960   -8.4440  120.9110 C.3   158  PRO158      0.0208
    140  CD        45.5270   -9.5670  121.9180 C.3   158  PRO158      0.0893
    141  N         50.0930   -9.5510  121.6460 N.am  159  SER159     -0.1938
    142  CA        51.1630   -8.8180  122.5210 C.3   159  SER159      0.2055
    143  C         52.2700   -8.3530  121.6210 C.2   159  SER159      0.2639
    144  O         52.3990   -8.8860  120.4700 O.2   159  SER159     -0.2714
    145  CB        51.3170   -9.5980  123.7220 C.3   159  SER159      0.2130
    146  OG        52.2660  -10.4730  123.8720 O.3   159  SER159     -0.2179
    147  N         52.9840   -7.2590  121.9000 N.am  160  VAL160     -0.2030
    148  CA        54.0540   -6.7140  121.1470 C.3   160  VAL160      0.1282
    149  C         55.3740   -6.7860  122.0220 C.3   160  VAL160      0.2035
    150  O         55.1800   -6.3170  123.2030 O.3   160  VAL160     -0.2185
    151  CB        54.0020   -5.1740  120.9030 C.3   160  VAL160      0.0226
    152  CG1       54.5140   -4.8330  119.5510 C.3   160  VAL160      0.0018
    153  CG2       52.8120   -4.5020  121.3520 C.3   160  VAL160      0.0018
    154  N         51.1550    0.1780  116.9780 N.3   170  PHE170     -0.1241
    155  CA        50.2180   -0.6980  116.3250 C.3   170  PHE170      0.1605
    156  C         48.8930   -0.0400  116.4060 C.2   170  PHE170      0.2264
    157  O         48.8030    1.0590  116.9710 O.2   170  PHE170     -0.2867
    158  CB        50.1740   -1.9780  117.0650 C.3   170  PHE170      0.0534
    159  CG        49.8300   -1.7400  118.5160 C.ar  170  PHE170     -0.0203
    160  CD1       50.8520   -1.5480  119.4420 C.ar  170  PHE170     -0.0042
    161  CD2       48.4950   -1.7040  118.9070 C.ar  170  PHE170     -0.0042
    162  CE1       50.5380   -1.3410  120.7820 C.ar  170  PHE170     -0.0003
    163  CE2       48.1760   -1.5020  120.2510 C.ar  170  PHE170     -0.0003
    164  CZ        49.1990   -1.3220  121.1900 C.ar  170  PHE170     -0.0000
    165  N         44.4370   -0.2240  116.8970 N.3   172  VAL172     -0.1231
    166  CA        43.3750   -1.2440  117.3600 C.3   172  VAL172      0.1677
    167  C         42.1470   -0.6270  116.8060 C.2   172  VAL172      0.2431
    168  O         41.9380    0.6070  116.7360 O.2   172  VAL172     -0.2733
    169  CB        43.4320   -1.5300  118.8430 C.3   172  VAL172      0.0265
    170  CG1       44.5520   -0.7880  119.5410 C.3   172  VAL172      0.0020
    171  CG2       42.1130   -1.2530  119.5400 C.3   172  VAL172      0.0020
    172  N         41.2250   -1.4190  116.1780 N.am  173  PRO173     -0.2774
    173  CA        39.9700   -0.9680  115.6310 C.3   173  PRO173      0.1083
    174  C         39.0990   -0.3940  116.7330 C.3   173  PRO173      0.2017
    175  O         39.4800   -0.6720  117.9360 O.3   173  PRO173     -0.2186
    176  CB        39.2530   -2.2870  115.2480 C.3   173  PRO173      0.0243
    177  CG        40.0020   -3.3680  115.8760 C.3   173  PRO173      0.0233
    178  CD        41.4420   -2.8740  115.9490 C.3   173  PRO173      0.0935
    179  N         36.9040   -0.7160  119.4600 N.3   175  VAL175     -0.1301
    180  CA        36.4200   -1.7850  120.2390 C.3   175  VAL175      0.1246
    181  C         35.2070   -1.5200  121.1110 C.3   175  VAL175      0.2009
    182  O         34.9170   -2.4360  121.9740 O.3   175  VAL175     -0.2188
    183  CB        37.5360   -2.4680  121.0240 C.3   175  VAL175      0.0202
    184  CG1       38.6870   -2.9110  120.1080 C.3   175  VAL175      0.0016
    185  CG2       38.1360   -1.6090  122.1190 C.3   175  VAL175      0.0016
    186  N         31.5170    5.5730  121.5400 N.3   181  TYR181     -0.1227
    187  CA        31.9540    5.5170  122.9640 C.3   181  TYR181      0.1736
    188  C         31.1770    6.6020  123.6840 C.2   181  TYR181      0.2595
    189  O         31.0750    7.6850  122.9810 O.2   181  TYR181     -0.2718
    190  CB        33.4020    5.6610  122.4480 C.3   181  TYR181      0.0548
    191  CG        34.4460    4.6860  122.0100 C.ar  181  TYR181     -0.0200
    192  CD1       34.4830    3.3670  122.4290 C.ar  181  TYR181     -0.0009
    193  CD2       35.4810    5.1220  121.2070 C.ar  181  TYR181     -0.0009
    194  CE1       35.4780    2.4840  122.0720 C.ar  181  TYR181      0.0417
    195  CE2       36.5070    4.2520  120.8140 C.ar  181  TYR181      0.0417
    196  CZ        36.4630    2.9540  121.2520 C.ar  181  TYR181      0.1957
    197  OH        37.4470    2.1490  120.7940 O.3   181  TYR181     -0.2866
    198  N         30.6630    6.4300  124.8720 N.am  182  ASN182     -0.1960
    199  CA        29.9470    7.5990  125.4990 C.3   182  ASN182      0.1819
    200  C         31.0260    8.4700  126.1880 C.2   182  ASN182      0.2618
    201  O         31.6930    7.8560  127.1010 O.2   182  ASN182     -0.2715
    202  CB        28.9940    7.1400  126.5390 C.3   182  ASN182      0.1195
    203  CG        27.7050    6.6070  126.1220 C.2   182  ASN182      0.2630
    204  OD1       26.6210    6.9950  126.5710 O.2   182  ASN182     -0.2716
    205  ND2       27.7910    5.6080  125.2390 N.am  182  ASN182     -0.0877
    206  N         31.1450    9.7090  125.8450 N.am  183  CYS183     -0.2021
    207  CA        31.9750   10.6260  126.5970 C.3   183  CYS183      0.1398
    208  C         31.2490   10.9390  127.9290 C.3   183  CYS183      0.2045
    209  O         32.0080   11.3930  128.8540 O.3   183  CYS183     -0.2185
    210  CB        32.2620   11.9530  125.9600 C.3   183  CYS183      0.0930
    211  SG        33.3390   11.6460  124.5720 S.3   183  CYS183     -0.0802
    212  N         30.1970    6.7060  133.7750 N.3   199  ILE199     -0.1245
    213  CA        30.6470    5.9340  132.5810 C.3   199  ILE199      0.1561
    214  C         31.6510    4.8880  132.9830 C.2   199  ILE199      0.2260
    215  O         31.8740    3.9010  132.2980 O.2   199  ILE199     -0.2867
    216  CB        31.3310    6.8710  131.5520 C.3   199  ILE199      0.0252
    217  CG1       32.8700    6.7960  131.5030 C.3   199  ILE199      0.0019
    218  CG2       31.0570    8.3310  131.8470 C.3   199  ILE199      0.0019
    219  CD1       33.4990    8.1140  130.9890 C.3   199  ILE199      0.0001
    220  N         32.4650    2.2970  130.4970 N.3   203  ASN203     -0.1240
    221  CA        33.8500    2.3870  130.0350 C.3   203  ASN203      0.1653
    222  C         34.7140    1.3380  130.6800 C.2   203  ASN203      0.2266
    223  O         35.7680    1.6360  131.2470 O.2   203  ASN203     -0.2867
    224  CB        34.3770    3.7350  130.4090 C.3   203  ASN203      0.1155
    225  CG        34.8570    4.4650  129.1920 C.2   203  ASN203      0.2627
    226  OD1       34.1130    4.5640  128.2190 O.2   203  ASN203     -0.2716
    227  ND2       36.0680    4.9650  129.1880 N.am  203  ASN203     -0.0877
    228  N         36.8110   -1.2940  129.6530 N.3   205  MET205     -0.1245
    229  CA        37.6350   -1.9830  128.5770 C.3   205  MET205      0.1570
    230  C         38.8200   -2.8870  129.0220 C.2   205  MET205      0.2261
    231  O         39.7540   -3.1820  128.2610 O.2   205  MET205     -0.2867
    232  CB        38.3160   -0.9700  127.6800 C.3   205  MET205      0.0387
    233  CG        37.7490    0.4150  127.8650 C.3   205  MET205      0.0595
    234  SD        36.5020    0.7610  126.6470 S.3   205  MET205     -0.1393
    235  CE        36.0160   -0.7550  125.8420 C.3   205  MET205      0.0692
    236  N         45.7460   -3.2760  130.3770 N.3   208  MET208     -0.1245
    237  CA        46.9700   -3.4700  129.5840 C.3   208  MET208      0.1570
    238  C         48.1330   -3.8250  130.5000 C.2   208  MET208      0.2261
    239  O         48.3250   -3.3000  131.5910 O.2   208  MET208     -0.2867
    240  CB        47.2200   -2.2240  128.7190 C.3   208  MET208      0.0387
    241  CG        48.6830   -2.0090  128.3620 C.3   208  MET208      0.0595
    242  SD        48.9190   -1.6910  126.6200 S.3   208  MET208     -0.1393
    243  CE        47.5790   -0.6840  126.0260 C.3   208  MET208      0.0692
@<TRIPOS>BOND
     1   176   173    1
     2   176   177    1
     3   173   172    1
     4   173   174    1
     5   177   178    1
     6   178   172    1
     7    81    82    1
     8    81    84    1
     9    81    80    1
    10   172   167   am
    11    82    83    2
    12   155   156    1
    13   155   154    1
    14   155   158    1
    15   156   157    2
    16    84    85    1
    17   174   175    1
    18   168   167    2
    19   167   166    1
    20   165   166    1
    21    94    93    2
    22   158   159    1
    23    91    92    1
    24    93    92    1
    25   166   169    1
    26    92    95    1
    27    85    87   ar
    28    85    86   ar
    29   159   161   ar
    30   159   160   ar
    31    97    98    1
    32    87    89   ar
    33    86    88   ar
    34   100    99    2
    35   169   171    1
    36   169   170    1
    37   161   163   ar
    38    75    74    1
    39    75    76    1
    40    95    96    1
    41   160   162   ar
    42   179   180    1
    43   152   151    1
    44    99    98    1
    45    74    73    1
    46    74    77    1
    47    98   101    1
    48   184   183    1
    49    89    90   ar
    50    79    77    1
    51    88    90   ar
    52   180   183    1
    53   180   181    1
    54   163   164   ar
    55   138   139    1
    56   138   135    1
    57   144   143    2
    58    77    78    1
    59   162   164   ar
    60   197   196    1
    61   195   193   ar
    62   195   196   ar
    63   101   102    1
    64   151   148    1
    65   151   153    1
    66   139   140    1
    67   103   102   ar
    68   103   105   ar
    69   183   185    1
    70   135   134    1
    71   135   136    1
    72   181   182    1
    73   148   147    1
    74   148   149    1
    75   193   191   ar
    76   196   194   ar
    77   186   187    1
    78   102   104   ar
    79   143   147   am
    80   143   142    1
    81   141   136   am
    82   141   142    1
    83   105   107   ar
    84   134   140    1
    85   136   137    2
    86   109   110    1
    87   191   192   ar
    88   191   190    1
    89   149   150    1
    90   194   192   ar
    91    63    61    1
    92   190   187    1
    93   142   145    1
    94   112   111    2
    95   104   106   ar
    96   107   106   ar
    97   107   108    1
    98   187   188    1
    99   189   188    2
   100   110   111    1
   101   110   113    1
   102    61    60    1
   103    61    62    1
   104   114   113    1
   105   114   116    1
   106    57    56    1
   107    57    60    1
   108    57    58    1
   109    59    58    2
   110   188   198   am
   111   145   146    1
   112   113   115    1
   113    58    64   am
   114   128   130   ar
   115   128   127   ar
   116   211   210    1
   117   130   132   ar
   118    38    36    1
   119   126   127    1
   120   126   123    1
   121   198   199    1
   122   127   129   ar
   123   120   119    2
   124   205   203   am
   125    64    65    1
   126   132   133    1
   127   132   131   ar
   128   199   200    1
   129   199   202    1
   130    66    65    1
   131    66    67    2
   132    36    37    1
   133    36    35    1
   134   235   234    1
   135   206   200   am
   136   206   207    1
   137   122   123    1
   138   129   131   ar
   139   210   207    1
   140   243   242    1
   141    65    68    1
   142   203   202    1
   143   203   204    2
   144   119   118    1
   145   123   124    1
   146   200   201    2
   147   117   118    1
   148   207   208    1
   149   242   241    1
   150   234   233    1
   151    35    32    1
   152   121   118    1
   153   125   124    2
   154    48    47    2
   155    45    46    1
   156    22    20    1
   157    68    69    1
   158    47    46    1
   159   232   233    1
   160   232   229    1
   161    21    19    1
   162    13    14   ar
   163    13    11   ar
   164    46    49    1
   165   208   209    1
   166    14    12   ar
   167    32    33    1
   168    32    31    1
   169    69    70    1
   170   226   225    2
   171   231   230    2
   172   241   240    1
   173    20    19    1
   174   229   230    1
   175   229   228    1
   176    34    33    2
   177   240   237    1
   178    33    39   am
   179    26    25    2
   180    31    25   am
   181    11     8   ar
   182    19    16    1
   183    25    24    1
   184   227   225   am
   185   225   224    1
   186    12    10   ar
   187    49    50    1
   188   237   236    1
   189   237   238    1
   190    70    72   ar
   191    70    71   ar
   192    39    40    1
   193    23    24    1
   194    23    17   am
   195    24    27    1
   196    50    51    1
   197   221   224    1
   198   221   220    1
   199   221   222    1
   200    16    17    1
   201    16    15    1
   202     8    10   ar
   203     8     6   ar
   204    17    18    2
   205    10     9   ar
   206   238   239    2
   207    40    43    1
   208    40    41    1
   209   222   223    2
   210   219   217    1
   211    43    44    1
   212    27    28    1
   213    51    52    1
   214   217   216    1
   215    29    28    2
   216     6     5    1
   217     6     7   ar
   218   216   218    1
   219   216   213    1
   220     9     7   ar
   221    41    42    2
   222     5     2    1
   223    28    30   am
   224    52    53    2
   225   215   214    2
   226     4     3    2
   227   213   214    1
   228   213   212    1
   229    53    55    1
   230    53    54    1
   231     3     2    1
   232     2     1    1
