@<TRIPOS>MOLECULE
tmp/1r09A00.pdb
 179 169 0 0 0
SMALL
GASTEIGER

@<TRIPOS>ATOM
      1  N         43.0750    0.3040  131.3270 N.3    88  ILE88      -0.1231
      2  CA        42.9950    1.2360  130.1940 C.3    88  ILE88       0.1692
      3  C         41.8160    2.2280  130.3450 C.2    88  ILE88       0.2592
      4  O         40.7140    1.8500  130.7710 O.2    88  ILE88      -0.2718
      5  CB        42.8670    0.4490  128.8990 C.3    88  ILE88       0.0266
      6  CG1       43.9980   -0.5710  128.7140 C.3    88  ILE88       0.0019
      7  CG2       42.8910    1.3370  127.6550 C.3    88  ILE88       0.0020
      8  CD1       44.2540   -0.9240  127.2490 C.3    88  ILE88       0.0001
      9  N         42.1410    3.4710  129.9690 N.am   89  ASN89      -0.1960
     10  CA        41.2070    4.6330  129.9600 C.3    89  ASN89       0.1819
     11  C         41.9720    5.8750  129.4320 C.2    89  ASN89       0.2621
     12  O         43.2110    5.8940  129.3970 O.2    89  ASN89      -0.2715
     13  CB        40.6520    4.8830  131.3690 C.3    89  ASN89       0.1195
     14  CG        41.6650    5.5280  132.3120 C.2    89  ASN89       0.2630
     15  OD1       41.7980    6.7510  132.3280 O.2    89  ASN89      -0.2716
     16  ND2       42.3960    4.7740  133.1100 N.am   89  ASN89      -0.0877
     17  N         41.2090    6.8890  129.0300 N.am   90  LEU90      -0.1963
     18  CA        41.7810    8.1260  128.4200 C.3    90  LEU90       0.1728
     19  C         41.5010    9.3680  129.2870 C.2    90  LEU90       0.2616
     20  O         41.9670   10.4770  128.9850 O.2    90  LEU90      -0.2715
     21  CB        41.1530    8.3710  127.0450 C.3    90  LEU90       0.0311
     22  CG        42.0380    7.9040  125.8890 C.3    90  LEU90       0.0022
     23  CD1       42.3070    6.3980  125.9120 C.3    90  LEU90       0.0001
     24  CD2       41.4300    8.1950  124.5150 C.3    90  LEU90       0.0001
     25  N         40.7470    9.1460  130.3430 N.am   91  SER91      -0.1950
     26  CA        40.3290   10.2200  131.2690 C.3    91  SER91       0.1924
     27  C         41.4980   10.6240  132.2220 C.2    91  SER91       0.2314
     28  O         41.4890   11.7120  132.8180 O.2    91  SER91      -0.2863
     29  CB        39.1510    9.7460  132.1210 C.3    91  SER91       0.2116
     30  OG        38.2920    8.9220  131.3460 O.3    91  SER91      -0.2180
     31  N         38.3410   15.6890  123.9180 N.3   100  LEU100     -0.1245
     32  CA        37.3070   14.7330  123.6070 C.3   100  LEU100      0.1561
     33  C         35.9580   15.1450  124.1930 C.2   100  LEU100      0.2260
     34  O         34.9140   14.7910  123.6260 O.2   100  LEU100     -0.2867
     35  CB        37.6430   13.3460  124.1010 C.3   100  LEU100      0.0270
     36  CG        38.6870   12.5790  123.4710 C.3   100  LEU100      0.0019
     37  CD1       39.2910   11.5300  124.4120 C.3   100  LEU100      0.0001
     38  CD2       38.1090   11.8030  122.2800 C.3   100  LEU100      0.0001
     39  N         31.6350    9.5830  120.6320 N.3   106  VAL106     -0.1301
     40  CA        32.8590    9.7740  119.7030 C.3   106  VAL106      0.1246
     41  C         33.1220    8.4180  119.1970 C.3   106  VAL106      0.2009
     42  O         32.8230    7.4330  119.9740 O.3   106  VAL106     -0.2188
     43  CB        33.7880   10.4560  120.7150 C.3   106  VAL106      0.0202
     44  CG1       34.8210    9.5990  121.3160 C.3   106  VAL106      0.0016
     45  CG2       34.2390   11.7430  120.1250 C.3   106  VAL106      0.0016
     46  N         36.1170    6.1980  116.9170 N.3   108  PHE108     -0.1241
     47  CA        37.3770    6.2360  116.1620 C.3   108  PHE108      0.1605
     48  C         38.3040    5.0690  116.5340 C.2   108  PHE108      0.2264
     49  O         38.2110    4.5000  117.6350 O.2   108  PHE108     -0.2867
     50  CB        38.1220    7.5530  116.4460 C.3   108  PHE108      0.0534
     51  CG        38.3400    7.8180  117.9420 C.ar  108  PHE108     -0.0203
     52  CD1       39.1680    6.9730  118.6890 C.ar  108  PHE108     -0.0042
     53  CD2       37.7130    8.9090  118.5620 C.ar  108  PHE108     -0.0042
     54  CE1       39.3680    7.2140  120.0530 C.ar  108  PHE108     -0.0003
     55  CE2       37.9130    9.1490  119.9270 C.ar  108  PHE108     -0.0003
     56  CZ        38.7410    8.3010  120.6720 C.ar  108  PHE108     -0.0000
     57  N         42.0870    3.5910  117.1280 N.3   110  SER110     -0.1217
     58  CA        43.2000    4.1130  117.8840 C.3   110  SER110      0.1889
     59  C         44.4930    3.5640  117.3780 C.2   110  SER110      0.2288
     60  O         44.5960    2.3720  117.0510 O.2   110  SER110     -0.2866
     61  CB        43.0780    3.7180  119.3470 C.3   110  SER110      0.2089
     62  OG        41.9010    4.2840  119.9060 O.3   110  SER110     -0.2183
     63  N         48.0190    3.5610  118.8770 N.3   112  TYR112     -0.1241
     64  CA        48.8480    3.7350  120.0450 C.3   112  TYR112      0.1605
     65  C         50.3400    3.6690  119.6610 C.2   112  TYR112      0.2264
     66  O         50.7230    2.9720  118.7080 O.2   112  TYR112     -0.2867
     67  CB        48.5500    2.6210  121.0650 C.3   112  TYR112      0.0534
     68  CG        47.1660    2.7530  121.7450 C.ar  112  TYR112     -0.0201
     69  CD1       46.0410    2.1130  121.1930 C.ar  112  TYR112     -0.0009
     70  CD2       47.0280    3.5020  122.9240 C.ar  112  TYR112     -0.0009
     71  CE1       44.7880    2.2160  121.8270 C.ar  112  TYR112      0.0417
     72  CE2       45.7770    3.6010  123.5560 C.ar  112  TYR112      0.0417
     73  CZ        44.6610    2.9570  123.0110 C.ar  112  TYR112      0.1957
     74  OH        43.4530    3.0460  123.6320 O.3   112  TYR112     -0.2866
     75  N         47.8210   -6.9140  125.8960 N.3   136  TYR136     -0.1241
     76  CA        46.4310   -6.4600  126.0630 C.3   136  TYR136      0.1605
     77  C         45.5840   -7.6110  126.6380 C.2   136  TYR136      0.2264
     78  O         45.2060   -8.5470  125.9200 O.2   136  TYR136     -0.2867
     79  CB        45.8770   -6.0230  124.6980 C.3   136  TYR136      0.0534
     80  CG        44.4120   -5.5790  124.7400 C.ar  136  TYR136     -0.0201
     81  CD1       43.9720   -4.7030  125.7370 C.ar  136  TYR136     -0.0009
     82  CD2       43.5120   -6.0520  123.7750 C.ar  136  TYR136     -0.0009
     83  CE1       42.6300   -4.3030  125.7750 C.ar  136  TYR136      0.0417
     84  CE2       42.1700   -5.6540  123.8140 C.ar  136  TYR136      0.0417
     85  CZ        41.7280   -4.7800  124.8150 C.ar  136  TYR136      0.1957
     86  OH        40.4240   -4.3970  124.8570 O.3   136  TYR136     -0.2866
     87  N         51.1140    0.2140  116.9230 N.3   170  PHE170     -0.1241
     88  CA        50.0570   -0.6800  116.4130 C.3   170  PHE170      0.1605
     89  C         48.7090   -0.0870  116.7390 C.2   170  PHE170      0.2264
     90  O         48.4870    0.4160  117.8430 O.2   170  PHE170     -0.2867
     91  CB        50.0990   -1.9820  117.1610 C.3   170  PHE170      0.0534
     92  CG        49.8010   -1.7630  118.6350 C.ar  170  PHE170     -0.0203
     93  CD1       50.8420   -1.4540  119.5140 C.ar  170  PHE170     -0.0042
     94  CD2       48.4840   -1.8440  119.1030 C.ar  170  PHE170     -0.0042
     95  CE1       50.5690   -1.2220  120.8640 C.ar  170  PHE170     -0.0003
     96  CE2       48.2110   -1.6100  120.4550 C.ar  170  PHE170     -0.0003
     97  CZ        49.2540   -1.2980  121.3350 C.ar  170  PHE170     -0.0000
     98  N         44.4500   -0.3450  116.7070 N.3   172  VAL172     -0.1245
     99  CA        43.3870   -1.2510  116.9930 C.3   172  VAL172      0.1561
    100  C         42.0520   -0.6920  116.5290 C.2   172  VAL172      0.2260
    101  O         41.7750    0.5070  116.6810 O.2   172  VAL172     -0.2867
    102  CB        43.3220   -1.4810  118.4920 C.3   172  VAL172      0.0252
    103  CG1       44.7020   -1.6240  119.1360 C.3   172  VAL172      0.0019
    104  CG2       42.6300   -0.3410  119.2420 C.3   172  VAL172      0.0019
    105  N         36.6990   -0.6840  119.3890 N.3   175  VAL175     -0.1245
    106  CA        36.1780   -1.8720  120.1640 C.3   175  VAL175      0.1561
    107  C         35.1390   -1.4790  121.2360 C.2   175  VAL175      0.2260
    108  O         35.1970   -1.9480  122.3860 O.2   175  VAL175     -0.2867
    109  CB        37.3270   -2.5810  120.8900 C.3   175  VAL175      0.0252
    110  CG1       38.3170   -3.2460  119.9350 C.3   175  VAL175      0.0019
    111  CG2       38.1580   -1.6380  121.7640 C.3   175  VAL175      0.0019
    112  N         31.4490    5.5460  121.3320 N.3   181  TYR181     -0.1227
    113  CA        31.9200    5.7270  122.6940 C.3   181  TYR181      0.1736
    114  C         31.1510    6.8730  123.3410 C.2   181  TYR181      0.2595
    115  O         30.9980    7.9500  122.7590 O.2   181  TYR181     -0.2718
    116  CB        33.4040    6.1430  122.6950 C.3   181  TYR181      0.0548
    117  CG        34.3610    5.0190  122.2900 C.ar  181  TYR181     -0.0200
    118  CD1       34.1900    3.7320  122.8080 C.ar  181  TYR181     -0.0009
    119  CD2       35.4160    5.2850  121.4060 C.ar  181  TYR181     -0.0009
    120  CE1       35.0730    2.7070  122.4420 C.ar  181  TYR181      0.0417
    121  CE2       36.2990    4.2610  121.0400 C.ar  181  TYR181      0.0417
    122  CZ        36.1270    2.9720  121.5580 C.ar  181  TYR181      0.1957
    123  OH        36.9840    1.9760  121.2050 O.3   181  TYR181     -0.2866
    124  N         30.6730    6.6260  124.5190 N.am  182  ASN182     -0.1960
    125  CA        30.0000    7.6560  125.3090 C.3   182  ASN182      0.1819
    126  C         31.0630    8.4720  126.0330 C.2   182  ASN182      0.2621
    127  O         31.9930    7.9170  126.6280 O.2   182  ASN182     -0.2715
    128  CB        29.0930    7.0070  126.3640 C.3   182  ASN182      0.1195
    129  CG        27.6820    6.7170  125.8520 C.2   182  ASN182      0.2630
    130  OD1       26.7240    7.3480  126.2990 O.2   182  ASN182     -0.2716
    131  ND2       27.4910    5.7900  124.9340 N.am  182  ASN182     -0.0877
    132  N         30.9150    9.7650  125.9530 N.am  183  CYS183     -0.1968
    133  CA        31.8270   10.7010  126.6270 C.3   183  CYS183      0.1712
    134  C         31.2290   11.0900  127.9520 C.2   183  CYS183      0.2296
    135  O         31.9090   11.6560  128.8190 O.2   183  CYS183     -0.2864
    136  CB        32.0250   11.9460  125.7670 C.3   183  CYS183      0.0983
    137  SG        33.3370   11.7290  124.4660 S.3   183  CYS183     -0.0798
    138  N         30.2720    7.0190  133.6830 N.3   199  ILE199     -0.1245
    139  CA        30.9050    6.3730  132.5370 C.3   199  ILE199      0.1561
    140  C         31.6480    5.1030  132.9670 C.2   199  ILE199      0.2260
    141  O         31.6590    4.0950  132.2410 O.2   199  ILE199     -0.2867
    142  CB        31.9720    7.3380  131.9570 C.3   199  ILE199      0.0252
    143  CG1       31.6070    7.8720  130.5840 C.3   199  ILE199      0.0019
    144  CG2       33.3570    6.7120  131.8470 C.3   199  ILE199      0.0019
    145  CD1       30.6500    9.0650  130.6350 C.3   199  ILE199      0.0001
    146  N         33.2640    1.9780  130.6910 N.3   203  ASN203     -0.1240
    147  CA        34.7080    1.7540  130.5580 C.3   203  ASN203      0.1653
    148  C         35.0710    0.4490  131.2410 C.2   203  ASN203      0.2266
    149  O         35.1770    0.3870  132.4770 O.2   203  ASN203     -0.2867
    150  CB        35.4870    2.8990  131.2250 C.3   203  ASN203      0.1155
    151  CG        36.7820    3.2690  130.4770 C.2   203  ASN203      0.2627
    152  OD1       37.8530    2.7660  130.8160 O.2   203  ASN203     -0.2716
    153  ND2       36.7450    4.1190  129.4660 N.am  203  ASN203     -0.0877
    154  N         37.2230   -1.9730  129.2140 N.3   205  MET205     -0.1245
    155  CA        37.9740   -2.4240  128.0310 C.3   205  MET205      0.1570
    156  C         39.1860   -3.2540  128.4510 C.2   205  MET205      0.2261
    157  O         40.0430   -3.5960  127.6250 O.2   205  MET205     -0.2867
    158  CB        38.4660   -1.2180  127.2290 C.3   205  MET205      0.0387
    159  CG        37.4800   -0.7820  126.1430 C.3   205  MET205      0.0595
    160  SD        36.9610    0.9120  126.3150 S.3   205  MET205     -0.1393
    161  CE        35.4830    1.1960  125.3630 C.3   205  MET205      0.0692
    162  N         46.0210   -3.0040  130.1530 N.3   208  MET208     -0.1245
    163  CA        47.2800   -3.3240  129.4650 C.3   208  MET208      0.1570
    164  C         48.3430   -3.7170  130.4890 C.2   208  MET208      0.2261
    165  O         48.5390   -3.0310  131.5030 O.2   208  MET208     -0.2867
    166  CB        47.7700   -2.1100  128.6760 C.3   208  MET208      0.0387
    167  CG        48.9460   -2.4340  127.7510 C.3   208  MET208      0.0595
    168  SD        48.8400   -1.6070  126.1790 S.3   208  MET208     -0.1393
    169  CE        49.0420   -2.7820  124.8570 C.3   208  MET208      0.0692
    170  N         48.2600    8.1240  122.3560 N.3   229  HIS229     -0.1241
    171  CA        47.0710    7.6500  121.6250 C.3   229  HIS229      0.1621
    172  C         46.6920    8.6650  120.5550 C.2   229  HIS229      0.2264
    173  O         46.6170    9.8440  120.8590 O.2   229  HIS229     -0.2867
    174  CB        45.8970    7.4780  122.5910 C.3   229  HIS229      0.0745
    175  CG        44.5480    7.3610  121.8780 C.ar  229  HIS229      0.0817
    176  ND1       43.8740    8.4740  121.3890 N.ar  229  HIS229     -0.2268
    177  CD2       43.7770    6.2800  121.5850 C.ar  229  HIS229      0.1154
    178  CE1       42.7520    8.0590  120.8320 C.ar  229  HIS229      0.1986
    179  NE2       42.6780    6.7550  120.9400 N.ar  229  HIS229     -0.2212
@<TRIPOS>BOND
     1    47    50    1
     2    47    48    1
     3    47    46    1
     4    88    89    1
     5    88    87    1
     6    88    91    1
     7    50    51    1
     8   100   101    2
     9   100    99    1
    10    48    49    2
    11    98    99    1
    12    89    90    2
    13    99   102    1
    14    60    59    2
    15    57    58    1
    16    91    92    1
    17    59    58    1
    18    58    61    1
    19    51    53   ar
    20    51    52   ar
    21   102   103    1
    22   102   104    1
    23    53    55   ar
    24    92    94   ar
    25    92    93   ar
    26    52    54   ar
    27    66    65    2
    28    63    64    1
    29    94    96   ar
    30    41    40    1
    31    41    42    1
    32    61    62    1
    33   105   106    1
    34    93    95   ar
    35    65    64    1
    36    40    39    1
    37    40    43    1
    38    55    56   ar
    39   110   109    1
    40    64    67    1
    41    54    56   ar
    42    45    43    1
    43   106   109    1
    44   106   107    1
    45    96    97   ar
    46   172   173    2
    47   172   171    1
    48    43    44    1
    49   178   179   ar
    50   178   176   ar
    51    95    97   ar
    52   109   111    1
    53   179   177   ar
    54   121   119   ar
    55   121   122   ar
    56    67    68    1
    57    69    68   ar
    58    69    71   ar
    59   123   122    1
    60   107   108    2
    61   112   113    1
    62   176   175   ar
    63   119   117   ar
    64   122   120   ar
    65   177   175   ar
    66   171   170    1
    67   171   174    1
    68    68    70   ar
    69    71    73   ar
    70   175   174    1
    71    38    36    1
    72   117   116    1
    73   117   118   ar
    74   120   118   ar
    75   113   116    1
    76   113   114    1
    77   115   114    2
    78    70    72   ar
    79    73    72   ar
    80    73    74    1
    81   114   124   am
    82    36    35    1
    83    36    37    1
    84    32    31    1
    85    32    35    1
    86    32    33    1
    87    34    33    2
    88    82    84   ar
    89    82    80   ar
    90    84    85   ar
    91   137   136    1
    92    24    22    1
    93   124   125    1
    94    79    80    1
    95    79    76    1
    96    80    81   ar
    97    85    86    1
    98    85    83   ar
    99   169   168    1
   100   131   129   am
   101   125   126    1
   102   125   128    1
   103   161   160    1
   104    81    83   ar
   105   136   133    1
   106   129   130    2
   107   129   128    1
   108    22    23    1
   109    22    21    1
   110    75    76    1
   111    78    77    2
   112   132   126   am
   113   132   133    1
   114   126   127    2
   115    76    77    1
   116   159   160    1
   117   159   158    1
   118   168   167    1
   119   133   134    1
   120    21    18    1
   121   158   155    1
   122     8     6    1
   123   157   156    2
   124     7     5    1
   125   167   166    1
   126   134   135    2
   127   155   156    1
   128   155   154    1
   129    18    17    1
   130    18    19    1
   131   166   163    1
   132     6     5    1
   133     5     2    1
   134    20    19    2
   135    17    11   am
   136    19    25   am
   137    12    11    2
   138    11    10    1
   139   163   162    1
   140   163   164    1
   141   153   151   am
   142    10     9    1
   143    10    13    1
   144     9     3   am
   145     2     3    1
   146     2     1    1
   147    25    26    1
   148     3     4    2
   149   151   152    2
   150   151   150    1
   151   164   165    2
   152   147   146    1
   153   147   150    1
   154   147   148    1
   155   143   145    1
   156   143   142    1
   157   148   149    2
   158    26    29    1
   159    26    27    1
   160    30    29    1
   161    13    14    1
   162   144   142    1
   163   142   139    1
   164    27    28    2
   165   141   140    2
   166    14    15    2
   167    14    16   am
   168   139   140    1
   169   139   138    1
