@<TRIPOS>MOLECULE
tmp/1r0bH00.pdb
 153 146 0 0 0
SMALL
GASTEIGER

@<TRIPOS>ATOM
      1  N         17.5080  -20.4450    6.4040 N.3    52  SER52      -0.1217
      2  CA        17.2610  -21.6180    5.5550 C.3    52  SER52       0.1889
      3  C         15.9640  -22.4000    5.8350 C.2    52  SER52       0.2288
      4  O         15.5400  -22.5300    6.9940 O.2    52  SER52      -0.2866
      5  CB        18.4330  -22.5790    5.6510 C.3    52  SER52       0.2089
      6  OG        18.1650  -23.7180    4.8840 O.3    52  SER52      -0.2183
      7  N         14.8080  -25.1710    2.9390 N.3    54  ARG54      -0.1231
      8  CA        15.1210  -26.4270    2.2490 C.3    54  ARG54       0.1694
      9  C         16.3770  -27.1360    2.6930 C.2    54  ARG54       0.2592
     10  O         16.3290  -28.2740    3.1400 O.2    54  ARG54      -0.2718
     11  CB        15.2330  -26.1960    0.7500 C.3    54  ARG54       0.0321
     12  CG        13.9250  -26.1630    0.0320 C.3    54  ARG54       0.0489
     13  CD        14.0360  -25.1700   -1.0750 C.3    54  ARG54       0.2205
     14  NE        14.2480  -23.8340   -0.5280 N.pl3  54  ARG54      -0.0865
     15  CZ        13.2640  -23.0490   -0.1080 C.cat  54  ARG54       0.5346
     16  NH1       12.0090  -23.4670   -0.1900 N.pl3  54  ARG54       0.1354
     17  NH2       13.5300  -21.8680    0.4280 N.pl3  54  ARG54       0.1354
     18  N         17.5070  -26.4640    2.5430 N.am   55  THR55      -0.1953
     19  CA        18.7820  -27.0470    2.9160 C.3    55  THR55       0.1897
     20  C         18.8230  -27.6370    4.3300 C.2    55  THR55       0.2313
     21  O         19.4400  -28.6800    4.5390 O.2    55  THR55      -0.2863
     22  CB        19.9140  -26.0120    2.7520 C.3    55  THR55       0.1794
     23  OG1       20.0820  -25.7060    1.3560 O.3    55  THR55      -0.2208
     24  CG2       21.2140  -26.5420    3.3360 C.3    55  THR55       0.0378
     25  N         26.1340  -24.0900    7.8340 N.3   105  ARG105     -0.1245
     26  CA        25.8140  -23.0580    6.8510 C.3   105  ARG105      0.1563
     27  C         26.1800  -21.7480    7.5530 C.2   105  ARG105      0.2260
     28  O         25.6490  -21.4360    8.6250 O.2   105  ARG105     -0.2867
     29  CB        24.3270  -23.0670    6.4900 C.3   105  ARG105      0.0307
     30  CG        23.9420  -21.9200    5.5740 C.3   105  ARG105      0.0489
     31  CD        22.5090  -21.9910    5.1300 C.3   105  ARG105      0.2205
     32  NE        22.4170  -22.5780    3.8060 N.pl3 105  ARG105     -0.0865
     33  CZ        21.4670  -22.2780    2.9330 C.cat 105  ARG105      0.5346
     34  NH1       20.5340  -21.4030    3.2560 N.pl3 105  ARG105      0.1354
     35  NH2       21.4670  -22.8330    1.7330 N.pl3 105  ARG105      0.1354
     36  N         28.6670  -24.6170   -2.3170 N.3   134  HIS134     -0.1241
     37  CA        27.4170  -25.1920   -1.8160 C.3   134  HIS134      0.1621
     38  C         27.3100  -26.5740   -2.4570 C.2   134  HIS134      0.2264
     39  O         26.4700  -26.8000   -3.3330 O.2   134  HIS134     -0.2867
     40  CB        26.1810  -24.3630   -2.2060 C.3   134  HIS134      0.0745
     41  CG        24.9260  -24.7590   -1.4680 C.ar  134  HIS134      0.0817
     42  ND1       24.7160  -26.0290   -0.9680 N.ar  134  HIS134     -0.2268
     43  CD2       23.8000  -24.0610   -1.1850 C.ar  134  HIS134      0.1154
     44  CE1       23.5190  -26.0960   -0.4140 C.ar  134  HIS134      0.1986
     45  NE2       22.9420  -24.9150   -0.5330 N.ar  134  HIS134     -0.2212
     46  N         23.9340  -28.8290   -2.6810 N.3   137  GLN137     -0.1245
     47  CA        22.9590  -28.3020   -3.6300 C.3   137  GLN137      0.1566
     48  C         23.3320  -28.7400   -5.0410 C.2   137  GLN137      0.2260
     49  O         22.4850  -28.7820   -5.9240 O.2   137  GLN137     -0.2867
     50  CB        22.9140  -26.7730   -3.5610 C.3   137  GLN137      0.0367
     51  CG        22.1140  -26.1070   -4.6920 C.3   137  GLN137      0.0905
     52  CD        20.6520  -26.5230   -4.7180 C.2   137  GLN137      0.2608
     53  OE1       19.9610  -26.4620   -3.7050 O.2   137  GLN137     -0.2717
     54  NE2       20.1760  -26.9480   -5.8830 N.am  137  GLN137     -0.0878
     55  N         26.2070  -18.8910   -4.9770 N.3   167  ARG167     -0.1231
     56  CA        27.0360  -20.0250   -4.5810 C.3   167  ARG167      0.1694
     57  C         26.6240  -21.3480   -5.2350 C.2   167  ARG167      0.2592
     58  O         27.4010  -22.3040   -5.2910 O.2   167  ARG167     -0.2718
     59  CB        26.9830  -20.1710   -3.0650 C.3   167  ARG167      0.0321
     60  CG        25.6060  -20.4060   -2.4900 C.3   167  ARG167      0.0489
     61  CD        25.6490  -20.0720   -1.0330 C.3   167  ARG167      0.2205
     62  NE        24.4910  -20.5530   -0.3050 N.pl3 167  ARG167     -0.0865
     63  CZ        24.3060  -20.3310    0.9900 C.cat 167  ARG167      0.5346
     64  NH1       25.2060  -19.6330    1.6770 N.pl3 167  ARG167      0.1354
     65  NH2       23.2360  -20.8170    1.6020 N.pl3 167  ARG167      0.1354
     66  N         25.3910  -21.3840   -5.7260 N.am  168  THR168     -0.1953
     67  CA        24.8320  -22.5590   -6.3710 C.3   168  THR168      0.1897
     68  C         25.3720  -22.7660   -7.7760 C.2   168  THR168      0.2313
     69  O         25.4470  -23.8950   -8.2520 O.2   168  THR168     -0.2863
     70  CB        23.3030  -22.4550   -6.4310 C.3   168  THR168      0.1794
     71  OG1       22.9320  -21.1280   -6.8240 O.3   168  THR168     -0.2208
     72  CG2       22.6980  -22.7630   -5.0680 C.3   168  THR168      0.0378
     73  N         18.1160  -18.6070  -11.1600 N.3   228  THR228     -0.1203
     74  CA        18.4530  -18.4270   -9.7560 C.3   228  THR228      0.1994
     75  C         17.9810  -17.0820   -9.2310 C.2   228  THR228      0.2617
     76  O         17.6250  -16.1900  -10.0010 O.2   228  THR228     -0.2717
     77  CB        19.9640  -18.4660   -9.5560 C.3   228  THR228      0.1784
     78  OG1       20.5060  -17.1770   -9.8590 O.3   228  THR228     -0.2211
     79  CG2       20.6020  -19.4800  -10.4910 C.3   228  THR228      0.0376
     80  N         18.0210  -16.9360   -7.9110 N.am  229  ARG229     -0.1979
     81  CA        17.6040  -15.7060   -7.2500 C.3   229  ARG229      0.1597
     82  C         18.7610  -14.7140   -7.1220 C.2   229  ARG229      0.2287
     83  O         19.9270  -15.1040   -7.0530 O.2   229  ARG229     -0.2864
     84  CB        17.0370  -16.0330   -5.8570 C.3   229  ARG229      0.0334
     85  CG        16.6240  -14.8240   -5.0270 C.3   229  ARG229      0.0492
     86  CD        16.0730  -15.2550   -3.6720 C.3   229  ARG229      0.2205
     87  NE        17.1050  -15.8660   -2.8390 N.pl3 229  ARG229     -0.0865
     88  CZ        17.8530  -15.2050   -1.9620 C.cat 229  ARG229      0.5346
     89  NH1       17.6820  -13.9030   -1.7870 N.pl3 229  ARG229      0.1354
     90  NH2       18.7890  -15.8430   -1.2750 N.pl3 229  ARG229      0.1354
     91  N         20.9550  -12.6800   -5.0860 N.3   231  GLN231     -0.1245
     92  CA        21.4040  -12.6550   -3.6930 C.3   231  GLN231      0.1566
     93  C         21.4010  -11.2760   -3.0220 C.2   231  GLN231      0.2260
     94  O         22.4560  -10.7710   -2.6300 O.2   231  GLN231     -0.2867
     95  CB        22.8070  -13.2520   -3.6140 C.3   231  GLN231      0.0367
     96  CG        22.9480  -14.5710   -4.3620 C.3   231  GLN231      0.0905
     97  CD        22.0220  -15.6550   -3.8280 C.2   231  GLN231      0.2608
     98  OE1       22.2020  -16.1430   -2.7150 O.2   231  GLN231     -0.2717
     99  NE2       21.0240  -16.0320   -4.6210 N.am  231  GLN231     -0.0878
    100  N         23.6890  -10.4980   -0.0770 N.3   234  ARG234     -0.1245
    101  CA        25.1410  -10.4860   -0.2390 C.3   234  ARG234      0.1563
    102  C         25.6090   -9.3450   -1.1430 C.2   234  ARG234      0.2260
    103  O         26.8080   -9.0810   -1.2580 O.2   234  ARG234     -0.2867
    104  CB        25.6000  -11.8210   -0.8200 C.3   234  ARG234      0.0307
    105  CG        24.9570  -13.0150   -0.1420 C.3   234  ARG234      0.0489
    106  CD        25.2640  -14.3190   -0.8690 C.3   234  ARG234      0.2205
    107  NE        24.5880  -15.4570   -0.2510 N.pl3 234  ARG234     -0.0865
    108  CZ        24.8080  -15.8720    0.9930 C.cat 234  ARG234      0.5346
    109  NH1       25.6880  -15.2500    1.7670 N.pl3 234  ARG234      0.1354
    110  NH2       24.1450  -16.9160    1.4640 N.pl3 234  ARG234      0.1354
    111  N         16.1240  -24.6900  -10.5090 N.3   265  HIS265     -0.1227
    112  CA        16.2980  -23.5210   -9.6710 C.3   265  HIS265      0.1737
    113  C         16.2780  -23.9630   -8.2190 C.2   265  HIS265      0.2438
    114  O         15.4290  -24.7850   -7.8430 O.2   265  HIS265     -0.2733
    115  CB        15.1210  -22.5860   -9.8980 C.3   265  HIS265      0.0758
    116  CG        15.2530  -21.2430   -9.2420 C.ar  265  HIS265      0.0818
    117  ND1       15.8860  -21.0550   -8.0340 N.ar  265  HIS265     -0.2268
    118  CD2       14.8110  -20.0200   -9.6230 C.ar  265  HIS265      0.1154
    119  CE1       15.8340  -19.7770   -7.6980 C.ar  265  HIS265      0.1986
    120  NE2       15.1870  -19.1260   -8.6470 N.ar  265  HIS265     -0.2212
    121  N         17.2470  -23.4820   -7.3890 N.am  266  PRO266     -0.2718
    122  CA        17.2840  -23.8310   -5.9520 C.3   266  PRO266      0.1535
    123  C         15.9140  -23.3070   -5.5510 C.2   266  PRO266      0.2598
    124  O         15.1000  -23.0860   -6.4510 O.2   266  PRO266     -0.2715
    125  CB        18.4230  -22.9740   -5.4370 C.3   266  PRO266      0.0310
    126  CG        19.3970  -23.0780   -6.5630 C.3   266  PRO266      0.0237
    127  CD        18.5250  -22.8580   -7.7910 C.3   266  PRO266      0.0939
    128  N         15.5530  -23.0460   -4.3120 N.am  267  LEU267     -0.1964
    129  CA        14.1790  -22.5820   -4.3590 C.3   267  LEU267      0.1713
    130  C         13.7610  -21.1490   -4.1930 C.2   267  LEU267      0.2458
    131  O         13.0520  -20.6200   -5.0490 O.2   267  LEU267     -0.2730
    132  CB        13.2380  -23.4330   -3.5280 C.3   267  LEU267      0.0310
    133  CG        11.9040  -23.3810   -4.3280 C.3   267  LEU267      0.0022
    134  CD1       12.1330  -23.9290   -5.7640 C.3   267  LEU267      0.0001
    135  CD2       10.8000  -24.1490   -3.6140 C.3   267  LEU267      0.0001
    136  N         14.1620  -20.4920   -3.1050 N.am  268  PRO268     -0.2727
    137  CA        13.7150  -19.1030   -3.0060 C.3   268  PRO268      0.1402
    138  C         13.6360  -18.3720   -4.3610 C.2   268  PRO268      0.2269
    139  O         14.6610  -17.9980   -4.9000 O.2   268  PRO268     -0.2865
    140  CB        14.7770  -18.4740   -2.0990 C.3   268  PRO268      0.0296
    141  CG        15.1760  -19.5630   -1.2030 C.3   268  PRO268      0.0237
    142  CD        15.3130  -20.7220   -2.2110 C.3   268  PRO268      0.0939
    143  N         21.3550  -36.0870   -0.3710 N.3   296  ARG296     -0.1245
    144  CA        21.9290  -35.8000    0.9430 C.3   296  ARG296      0.1563
    145  C         21.9250  -37.0480    1.8150 C.2   296  ARG296      0.2260
    146  O         22.8620  -37.2760    2.5850 O.2   296  ARG296     -0.2867
    147  CB        21.1810  -34.6400    1.6270 C.3   296  ARG296      0.0307
    148  CG        21.4880  -33.2810    0.9830 C.3   296  ARG296      0.0489
    149  CD        20.7920  -32.1040    1.6470 C.3   296  ARG296      0.2205
    150  NE        21.0920  -30.8270    0.9850 N.pl3 296  ARG296     -0.0865
    151  CZ        20.2400  -30.1520    0.2120 C.cat 296  ARG296      0.5346
    152  NH1       19.0180  -30.6230   -0.0110 N.pl3 296  ARG296      0.1354
    153  NH2       20.6030  -28.9960   -0.3330 N.pl3 296  ARG296      0.1354
@<TRIPOS>BOND
     1    73    74    1
     2   111   112    1
     3    79    77    1
     4    76    75    2
     5   115   112    1
     6   115   116    1
     7    78    77    1
     8    74    77    1
     9    74    75    1
    10   112   113    1
    11   118   116   ar
    12   118   120   ar
    13   116   117   ar
    14    75    80   am
    15   120   119   ar
    16    69    68    2
    17   113   114    2
    18   113   121   am
    19   117   119   ar
    20    80    81    1
    21   127   121    1
    22   127   126    1
    23    68    67    1
    24   121   122    1
    25    81    82    1
    26    81    84    1
    27    82    83    2
    28    71    70    1
    29   126   125    1
    30   124   123    2
    31    70    67    1
    32    70    72    1
    33    67    66    1
    34   122   123    1
    35   122   125    1
    36    49    48    2
    37    54    52   am
    38    84    85    1
    39   134   133    1
    40    66    57   am
    41   123   128   am
    42    58    57    2
    43    57    56    1
    44    91    92    1
    45   131   130    2
    46    48    47    1
    47    85    86    1
    48    55    56    1
    49   139   138    2
    50    52    51    1
    51    52    53    2
    52    51    50    1
    53    99    97   am
    54    56    59    1
    55    96    97    1
    56    96    95    1
    57   138   137    1
    58   129   128    1
    59   129   130    1
    60   129   132    1
    61   133   135    1
    62   133   132    1
    63   130   136   am
    64    97    98    2
    65    92    95    1
    66    92    93    1
    67    86    87    1
    68    47    50    1
    69    47    46    1
    70    39    38    2
    71   136   137    1
    72   136   142    1
    73    59    60    1
    74    93    94    2
    75   137   140    1
    76    87    88    2
    77    60    61    1
    78    38    37    1
    79    36    37    1
    80   142   141    1
    81    40    37    1
    82    40    41    1
    83   140   141    1
    84    88    89    1
    85    88    90    1
    86    41    43   ar
    87    41    42   ar
    88   103   102    2
    89    43    45   ar
    90   102   101    1
    91    13    14    1
    92    13    12    1
    93    61    62    1
    94    42    44   ar
    95   106   107    1
    96   106   105    1
    97   104   101    1
    98   104   105    1
    99    45    44   ar
   100    14    15    2
   101   143   144    1
   102   153   151    1
   103    62    63    2
   104   107   108    2
   105   101   100    1
   106    16    15    1
   107    15    17    1
   108   152   151    1
   109    12    11    1
   110   151   150    2
   111    11     8    1
   112   144   147    1
   113   144   145    1
   114   148   147    1
   115   148   149    1
   116   150   149    1
   117    63    65    1
   118    63    64    1
   119   108   110    1
   120   108   109    1
   121    23    22    1
   122    35    33    1
   123   145   146    2
   124     8     9    1
   125     8     7    1
   126    18     9   am
   127    18    19    1
   128     9    10    2
   129    22    19    1
   130    22    24    1
   131    19    20    1
   132    33    34    1
   133    33    32    2
   134    32    31    1
   135    20    21    2
   136     6     5    1
   137    31    30    1
   138     2     5    1
   139     2     3    1
   140     2     1    1
   141    30    29    1
   142     3     4    2
   143    29    26    1
   144    26    27    1
   145    26    25    1
   146    27    28    2
