@<TRIPOS>MOLECULE
tmp/1r0eB01.pdb
 171 164 0 0 0
SMALL
GASTEIGER

@<TRIPOS>ATOM
      1  N         64.1980   66.9760   14.6560 N.3    28  ILE28      -0.1231
      2  CA        63.0150   66.1930   14.2980 C.3    28  ILE28       0.1692
      3  C         63.0010   64.8460   15.0200 C.2    28  ILE28       0.2592
      4  O         61.9840   64.1620   15.0700 O.2    28  ILE28      -0.2718
      5  CB        62.8910   65.9900   12.7660 C.3    28  ILE28       0.0266
      6  CG1       64.1770   65.3900   12.1690 C.3    28  ILE28       0.0019
      7  CG2       62.4860   67.2790   12.0850 C.3    28  ILE28       0.0020
      8  CD1       63.9750   64.7900   10.7780 C.3    28  ILE28       0.0001
      9  N         64.1370   64.4680   15.5810 N.am   29  GLY29      -0.1957
     10  CA        64.2480   63.1920   16.2440 C.3    29  GLY29       0.1869
     11  C         65.4300   63.1610   17.1700 C.2    29  GLY29       0.2309
     12  O         66.4010   63.9150   17.0060 O.2    29  GLY29      -0.2863
     13  N         69.5390   56.2540   17.4180 N.3    33  PHE33      -0.1241
     14  CA        70.1300   56.7760   16.1740 C.3    33  PHE33       0.1605
     15  C         70.7760   58.1710   16.3480 C.2    33  PHE33       0.2264
     16  O         71.3550   58.7170   15.4000 O.2    33  PHE33      -0.2867
     17  CB        69.1350   56.7570   14.9870 C.3    33  PHE33       0.0534
     18  CG        67.7460   57.2940   15.3100 C.ar   33  PHE33      -0.0203
     19  CD1       67.5300   58.6600   15.5310 C.ar   33  PHE33      -0.0042
     20  CD2       66.6440   56.4320   15.3550 C.ar   33  PHE33      -0.0042
     21  CE1       66.2350   59.1540   15.8170 C.ar   33  PHE33      -0.0003
     22  CE2       65.3460   56.9180   15.6400 C.ar   33  PHE33      -0.0003
     23  CZ        65.1420   58.2790   15.8680 C.ar   33  PHE33      -0.0000
     24  N         68.6680   63.8350   15.2170 N.3    36  VAL36      -0.1245
     25  CA        68.4220   64.0480   13.8030 C.3    36  VAL36       0.1561
     26  C         67.7640   65.4000   13.6170 C.2    36  VAL36       0.2260
     27  O         66.7840   65.7230   14.2900 O.2    36  VAL36      -0.2867
     28  CB        67.6050   62.9080   13.1410 C.3    36  VAL36       0.0252
     29  CG1       67.3630   63.2140   11.6680 C.3    36  VAL36       0.0019
     30  CG2       68.3310   61.5970   13.2650 C.3    36  VAL36       0.0019
     31  N         67.9790   65.7810    5.9530 N.3    49  ALA49      -0.1245
     32  CA        68.0710   65.3740    7.3400 C.3    49  ALA49       0.1562
     33  C         69.5440   65.4070    7.6970 C.2    49  ALA49       0.2260
     34  O         70.3900   65.0850    6.8610 O.2    49  ALA49      -0.2867
     35  CB        67.5260   64.0020    7.4960 C.3    49  ALA49       0.0290
     36  N         71.9120   63.6750   10.5300 N.3    51  LYS51      -0.1245
     37  CA        72.0700   62.8020   11.6820 C.3    51  LYS51       0.1561
     38  C         73.4390   63.0180   12.3070 C.2    51  LYS51       0.2260
     39  O         74.4740   62.8260   11.6660 O.2    51  LYS51      -0.2867
     40  CB        71.8670   61.3470   11.2870 C.3    51  LYS51       0.0271
     41  CG        71.9500   60.3530   12.4280 C.3    51  LYS51       0.0035
     42  CD        71.9140   58.9320   11.8790 C.3    51  LYS51       0.0206
     43  CE        72.6280   57.9410   12.8070 C.3    51  LYS51       0.1093
     44  NZ        71.9890   56.5670   12.8040 N.3    51  LYS51      -0.1314
     45  N         67.6570   56.1630    1.5170 N.3    76  VAL76      -0.1245
     46  CA        68.0460   57.5150    1.8380 C.3    76  VAL76       0.1561
     47  C         69.5500   57.6960    1.5380 C.2    76  VAL76       0.2260
     48  O         70.3980   56.9830    2.0810 O.2    76  VAL76      -0.2867
     49  CB        67.7430   57.8230    3.3390 C.3    76  VAL76       0.0252
     50  CG1       68.4220   59.0750    3.7790 C.3    76  VAL76       0.0019
     51  CG2       66.2240   57.9500    3.5620 C.3    76  VAL76       0.0019
     52  N         71.5650   63.8630    4.7710 N.3    93  LEU93      -0.1231
     53  CA        70.8290   62.7910    4.1260 C.3    93  LEU93       0.1693
     54  C         69.5970   63.3210    3.3990 C.2    93  LEU93       0.2592
     55  O         69.1060   64.3870    3.7330 O.2    93  LEU93      -0.2718
     56  CB        70.4170   61.7730    5.1980 C.3    93  LEU93       0.0284
     57  CG        71.5400   61.0680    5.9670 C.3    93  LEU93       0.0019
     58  CD1       71.0510   60.7320    7.3780 C.3    93  LEU93       0.0001
     59  CD2       71.9830   59.7890    5.2490 C.3    93  LEU93       0.0001
     60  N         69.1030   62.5690    2.4260 N.am   94  ASP94      -0.1960
     61  CA        67.7690   62.8090    1.8770 C.3    94  ASP94       0.1840
     62  C         66.7710   63.0310    3.0200 C.2    94  ASP94       0.2622
     63  O         66.8320   62.3530    4.0610 O.2    94  ASP94      -0.2715
     64  CB        67.2890   61.6040    1.0800 C.3    94  ASP94       0.1450
     65  CG        67.9460   61.4820   -0.2860 C.2    94  ASP94       0.3671
     66  OD1       68.5690   62.4790   -0.7610 O.co2  94  ASP94      -0.2456
     67  OD2       67.8540   60.4120   -0.9580 O.co2  94  ASP94      -0.2456
     68  N         65.8810   63.9960    2.8380 N.am   95  TYR95      -0.1960
     69  CA        64.7690   64.1590    3.7540 C.3    95  TYR95       0.1771
     70  C         63.5030   63.6570    3.0820 C.2    95  TYR95       0.2619
     71  O         63.2270   64.0100    1.9460 O.2    95  TYR95      -0.2715
     72  CB        64.6050   65.6070    4.2350 C.3    95  TYR95       0.0574
     73  CG        63.3180   65.8030    5.0120 C.ar   95  TYR95      -0.0198
     74  CD1       63.2540   65.5250    6.3800 C.ar   95  TYR95      -0.0009
     75  CD2       62.1480   66.2320    4.3640 C.ar   95  TYR95      -0.0009
     76  CE1       62.0580   65.6860    7.0890 C.ar   95  TYR95       0.0417
     77  CE2       60.9610   66.4030    5.0560 C.ar   95  TYR95       0.0417
     78  CZ        60.9180   66.1240    6.4130 C.ar   95  TYR95       0.1957
     79  OH        59.7310   66.2850    7.0920 O.3    95  TYR95      -0.2866
     80  N         62.7800   62.7800    3.7750 N.am   96  VAL96      -0.1964
     81  CA        61.5230   62.2020    3.3080 C.3    96  VAL96       0.1712
     82  C         60.5410   62.3720    4.4860 C.2    96  VAL96       0.2458
     83  O         60.8560   62.0000    5.6170 O.2    96  VAL96      -0.2730
     84  CB        61.6970   60.7370    2.8680 C.3    96  VAL96       0.0289
     85  CG1       60.4800   60.2070    2.0850 C.3    96  VAL96       0.0023
     86  CG2       62.9460   60.5810    2.0030 C.3    96  VAL96       0.0023
     87  N         59.3930   63.0100    4.2470 N.am   97  PRO97      -0.2716
     88  CA        58.5530   63.5210    5.3460 C.3    97  PRO97       0.1536
     89  C         57.7050   62.5030    6.1040 C.2    97  PRO97       0.2598
     90  O         57.4160   62.7420    7.2630 O.2    97  PRO97      -0.2715
     91  CB        57.6390   64.5560    4.6410 C.3    97  PRO97       0.0310
     92  CG        57.4780   64.0380    3.2490 C.3    97  PRO97       0.0237
     93  CD        58.8410   63.3630    2.9270 C.3    97  PRO97       0.0939
     94  N         57.2940   61.4170    5.4800 N.am   98  GLU98      -0.1964
     95  CA        56.3860   60.4840    6.1460 C.3    98  GLU98       0.1733
     96  C         57.0420   59.1390    6.4390 C.2    98  GLU98       0.2617
     97  O         58.1740   58.8870    6.0090 O.2    98  GLU98      -0.2715
     98  CB        55.1150   60.2570    5.3020 C.3    98  GLU98       0.0429
     99  CG        53.8450   60.9440    5.8010 C.3    98  GLU98       0.1163
    100  CD        53.6380   60.9470    7.3370 C.2    98  GLU98       0.3649
    101  OE1       53.9530   59.9440    8.0320 O.co2  98  GLU98      -0.2457
    102  OE2       53.1460   61.9930    7.8640 O.co2  98  GLU98      -0.2457
    103  N         56.3360   58.2840    7.1720 N.am   99  THR99      -0.1951
    104  CA        56.8160   56.9290    7.4090 C.3    99  THR99       0.1897
    105  C         55.6700   55.9580    7.2580 C.2    99  THR99       0.2313
    106  O         54.5200   56.3200    7.5160 O.2    99  THR99      -0.2863
    107  CB        57.4450   56.7730    8.8160 C.3    99  THR99       0.1794
    108  OG1       56.4100   56.8460    9.8030 O.3    99  THR99      -0.2208
    109  CG2       58.3590   57.9650    9.1590 C.3    99  THR99       0.0378
    110  N         55.1970   53.6420    9.2800 N.3   101  TYR101     -0.1227
    111  CA        54.6680   53.5440   10.6370 C.3   101  TYR101      0.1736
    112  C         53.5070   54.5390   10.8740 C.2   101  TYR101      0.2595
    113  O         52.4340   54.1420   11.3300 O.2   101  TYR101     -0.2718
    114  CB        55.7760   53.8020   11.6490 C.3   101  TYR101      0.0548
    115  CG        55.3530   53.7930   13.1250 C.ar  101  TYR101     -0.0200
    116  CD1       55.2770   52.5890   13.8320 C.ar  101  TYR101     -0.0009
    117  CD2       55.0870   54.9900   13.8190 C.ar  101  TYR101     -0.0009
    118  CE1       54.9430   52.5500   15.1780 C.ar  101  TYR101      0.0417
    119  CE2       54.7200   54.9750   15.2010 C.ar  101  TYR101      0.0417
    120  CZ        54.6470   53.7320   15.8530 C.ar  101  TYR101      0.1957
    121  OH        54.3160   53.6400   17.1690 O.3   101  TYR101     -0.2866
    122  N         53.7280   55.8140   10.5590 N.am  102  ARG102     -0.1980
    123  CA        52.7070   56.8540   10.7640 C.3   102  ARG102      0.1597
    124  C         51.5070   56.6580    9.8340 C.2   102  ARG102      0.2287
    125  O         50.3550   56.7200   10.2700 O.2   102  ARG102     -0.2864
    126  CB        53.3000   58.2510   10.5900 C.3   102  ARG102      0.0334
    127  CG        54.0920   58.7320   11.7840 C.3   102  ARG102      0.0492
    128  CD        54.8940   60.0140   11.5300 C.3   102  ARG102      0.2205
    129  NE        54.1610   60.9670   10.6930 N.pl3 102  ARG102     -0.0865
    130  CZ        53.3460   61.9060   11.1580 C.cat 102  ARG102      0.5346
    131  NH1       53.1540   62.0510   12.4640 N.pl3 102  ARG102      0.1354
    132  NH2       52.7300   62.7110   10.3080 N.pl3 102  ARG102      0.1354
    133  N         58.7990   52.0730   10.9890 N.3   146  GLN146     -0.1231
    134  CA        59.4360   53.3390   11.3010 C.3   146  GLN146      0.1698
    135  C         60.6590   53.6460   10.4360 C.2   146  GLN146      0.2592
    136  O         61.0600   54.8020   10.3630 O.2   146  GLN146     -0.2718
    137  CB        59.8780   53.3740   12.7640 C.3   146  GLN146      0.0381
    138  CG        58.7670   53.6230   13.7500 C.3   146  GLN146      0.0905
    139  CD        59.1280   53.1880   15.1470 C.2   146  GLN146      0.2608
    140  OE1       59.5070   52.0410   15.3520 O.2   146  GLN146     -0.2717
    141  NE2       58.9750   54.0990   16.1270 N.am  146  GLN146     -0.0878
    142  N         61.2810   52.6230    9.8410 N.am  147  ASN147     -0.1974
    143  CA        62.4800   52.8360    9.0390 C.3   147  ASN147      0.1688
    144  C         62.1680   52.8710    7.5600 C.2   147  ASN147      0.2292
    145  O         63.0760   52.7690    6.7040 O.2   147  ASN147     -0.2864
    146  CB        63.5530   51.7850    9.3470 C.3   147  ASN147      0.1181
    147  CG        64.2220   52.0410   10.6570 C.2   147  ASN147      0.2629
    148  OD1       64.2340   53.1800   11.1440 O.2   147  ASN147     -0.2716
    149  ND2       64.7940   50.9920   11.2550 N.am  147  ASN147     -0.0877
    150  N         60.6010   55.3310    5.0340 N.3   149  LEU149     -0.1245
    151  CA        60.1660   56.6840    4.7800 C.3   149  LEU149      0.1561
    152  C         59.4030   56.7670    3.4730 C.2   149  LEU149      0.2260
    153  O         59.6690   56.0170    2.5270 O.2   149  LEU149     -0.2867
    154  CB        61.3350   57.6300    4.7800 C.3   149  LEU149      0.0270
    155  CG        62.3010   57.5190    5.9500 C.3   149  LEU149      0.0019
    156  CD1       63.3880   58.5510    5.7530 C.3   149  LEU149      0.0001
    157  CD2       61.5910   57.6910    7.3140 C.3   149  LEU149      0.0001
    158  N         65.6690   53.8560    5.6690 N.3   160  CYS160     -0.1221
    159  CA        66.5750   54.7150    6.3820 C.3   160  CYS160      0.1808
    160  C         67.1080   53.9960    7.6100 C.2   160  CYS160      0.2601
    161  O         66.7960   52.8300    7.8350 O.2   160  CYS160     -0.2717
    162  CB        65.8480   55.9890    6.8030 C.3   160  CYS160      0.0970
    163  SG        64.5710   55.6310    8.0410 S.3   160  CYS160     -0.0800
    164  N         67.9130   54.7190    8.3860 N.am  161  ASP161     -0.1973
    165  CA        68.6040   54.2320    9.5950 C.3   161  ASP161      0.1709
    166  C         69.4800   52.9890    9.4040 C.2   161  ASP161      0.2293
    167  O         69.0480   51.8430    9.6540 O.2   161  ASP161     -0.2864
    168  CB        67.6440   53.9910   10.7490 C.3   161  ASP161      0.1436
    169  CG        68.3380   54.0790   12.1160 C.2   161  ASP161      0.3671
    170  OD1       69.6020   54.1490   12.1980 O.co2 161  ASP161     -0.2456
    171  OD2       67.6790   54.0790   13.1750 O.co2 161  ASP161     -0.2456
@<TRIPOS>BOND
     1    67    65   ar
     2    66    65   ar
     3    65    64    1
     4    64    61    1
     5    45    46    1
     6    47    46    1
     7    47    48    2
     8    46    49    1
     9    61    60    1
    10    61    62    1
    11    71    70    2
    12    86    84    1
    13    85    84    1
    14    60    54   am
    15   153   152    2
    16    68    62   am
    17    68    69    1
    18    84    81    1
    19    93    92    1
    20    93    87    1
    21    62    63    2
    22    70    69    1
    23    70    80   am
    24    92    91    1
    25    81    80    1
    26    81    82    1
    27    49    51    1
    28    49    50    1
    29    54    55    2
    30    54    53    1
    31   152   151    1
    32    69    72    1
    33    53    52    1
    34    53    56    1
    35    72    73    1
    36    87    82   am
    37    87    88    1
    38    75    73   ar
    39    75    77   ar
    40    82    83    2
    41    91    88    1
    42   151   154    1
    43   151   150    1
    44   154   155    1
    45    73    74   ar
    46    77    78   ar
    47    56    57    1
    48    59    57    1
    49    98    99    1
    50    98    95    1
    51    88    89    1
    52    94    89   am
    53    94    95    1
    54   158   159    1
    55   156   155    1
    56    99   100    1
    57   155   157    1
    58    31    32    1
    59    57    58    1
    60    97    96    2
    61    89    90    2
    62    95    96    1
    63    74    76   ar
    64   159   162    1
    65   159   160    1
    66    78    76   ar
    67    78    79    1
    68    96   103   am
    69   145   144    2
    70   162   163    1
    71    34    33    2
    72   103   104    1
    73   105   104    1
    74   105   106    2
    75   100   102   ar
    76   100   101   ar
    77    32    35    1
    78    32    33    1
    79   104   107    1
    80   144   143    1
    81   160   161    2
    82   160   164   am
    83   164   165    1
    84   107   109    1
    85   107   108    1
    86   143   146    1
    87   143   142    1
    88   110   111    1
    89   146   147    1
    90   166   165    1
    91   166   167    2
    92   165   168    1
    93   124   125    2
    94   124   123    1
    95   142   135   am
    96   132   130    1
    97   136   135    2
    98   135   134    1
    99    36    37    1
   100   122   123    1
   101   122   112   am
   102   126   123    1
   103   126   127    1
   104   111   112    1
   105   111   114    1
   106   147   148    2
   107   147   149   am
   108   129   130    2
   109   129   128    1
   110   168   169    1
   111     8     6    1
   112   112   113    2
   113   133   134    1
   114   130   131    1
   115    40    37    1
   116    40    41    1
   117   134   137    1
   118   128   127    1
   119   114   115    1
   120    39    38    2
   121    29    28    1
   122    37    38    1
   123    42    41    1
   124    42    43    1
   125     7     5    1
   126   169   170   ar
   127   169   171   ar
   128     6     5    1
   129   137   138    1
   130     5     2    1
   131    44    43    1
   132   115   117   ar
   133   115   116   ar
   134    28    30    1
   135    28    25    1
   136    26    25    1
   137    26    27    2
   138   138   139    1
   139    25    24    1
   140   117   119   ar
   141   116   118   ar
   142     2     1    1
   143     2     3    1
   144    17    18    1
   145    17    14    1
   146     3     4    2
   147     3     9   am
   148   139   140    2
   149   139   141   am
   150   118   120   ar
   151   119   120   ar
   152    18    20   ar
   153    18    19   ar
   154    20    22   ar
   155    16    15    2
   156    19    21   ar
   157     9    10    1
   158    22    23   ar
   159    21    23   ar
   160   120   121    1
   161    14    15    1
   162    14    13    1
   163    10    11    1
   164    12    11    2
