@<TRIPOS>MOLECULE
tmp/1r0lB00.pdb
 104 98 0 0 0
SMALL
GASTEIGER

@<TRIPOS>ATOM
      1  N         35.4170   51.0090   14.9750 N.3     9  GLY9       -0.1210
      2  CA        35.3940   51.5140   13.6120 C.3     9  GLY9        0.1956
      3  C         36.3760   50.6980   12.7810 C.2     9  GLY9        0.2612
      4  O         37.2160   51.2300   12.0420 O.2     9  GLY9       -0.2717
      5  N         36.2430   49.3820   12.8880 N.am   10  ALA10      -0.1965
      6  CA        37.1410   48.4650   12.2000 C.3    10  ALA10       0.1728
      7  C         36.9480   48.3240   10.7050 C.2    10  ALA10       0.2617
      8  O         37.7420   47.6440   10.0610 O.2    10  ALA10      -0.2715
      9  CB        37.0660   47.0740   12.8480 C.3    10  ALA10       0.0334
     10  N         35.9230   48.9630   10.1470 N.am   11  THR11      -0.1937
     11  CA        35.6490   48.8380    8.7160 C.3    11  THR11       0.2028
     12  C         35.9660   50.0270    7.8160 C.2    11  THR11       0.2643
     13  O         35.6530   49.9860    6.6300 O.2    11  THR11      -0.2714
     14  CB        34.1900   48.4830    8.5010 C.3    11  THR11       0.1808
     15  OG1       33.3850   49.3950    9.2490 O.3    11  THR11      -0.2208
     16  CG2       33.8970   47.0720    8.9900 C.3    11  THR11       0.0379
     17  N         36.5610   51.0820    8.3610 N.am   12  GLY12      -0.1939
     18  CA        36.8890   52.2330    7.5400 C.3    12  GLY12       0.2014
     19  C         38.2800   52.0400    6.9820 C.2    12  GLY12       0.2639
     20  O         38.7620   50.9160    6.9300 O.2    12  GLY12      -0.2714
     21  N         38.9280   53.1270    6.5700 N.am   13  SER13      -0.1949
     22  CA        40.2840   53.0340    6.0460 C.3    13  SER13       0.1924
     23  C         41.2550   52.7780    7.2130 C.2    13  SER13       0.2314
     24  O         42.1060   51.8930    7.1380 O.2    13  SER13      -0.2863
     25  CB        40.6670   54.3250    5.2970 C.3    13  SER13       0.2116
     26  OG        40.6590   55.4670    6.1560 O.3    13  SER13      -0.2180
     27  N         34.1910   46.8750   15.8760 N.3    35  THR35      -0.1203
     28  CA        32.9120   47.5130   15.6480 C.3    35  THR35       0.1994
     29  C         32.8200   48.0820   14.2600 C.2    35  THR35       0.2618
     30  O         33.8360   48.3090   13.5790 O.2    35  THR35      -0.2717
     31  CB        32.6040   48.6710   16.6290 C.3    35  THR35       0.1784
     32  OG1       33.3900   49.8040   16.2950 O.3    35  THR35      -0.2211
     33  CG2       32.8980   48.2870   18.0360 C.3    35  THR35       0.0376
     34  N         31.5730   48.3050   13.8590 N.am   36  ALA36      -0.1965
     35  CA        31.2240   48.8900   12.5770 C.3    36  ALA36       0.1728
     36  C         29.8620   49.5610   12.7820 C.2    36  ALA36       0.2616
     37  O         29.2410   49.3890   13.8300 O.2    36  ALA36      -0.2715
     38  CB        31.1380   47.8090   11.5140 C.3    36  ALA36       0.0334
     39  N         29.4010   50.3210   11.7860 N.am   37  ASN37      -0.1958
     40  CA        28.1120   51.0120   11.8720 C.3    37  ASN37       0.1819
     41  C         27.0280   50.3290   11.0670 C.2    37  ASN37       0.2621
     42  O         25.9970   49.9270   11.5970 O.2    37  ASN37      -0.2715
     43  CB        28.2420   52.4330   11.3530 C.3    37  ASN37       0.1195
     44  CG        26.9020   53.1530   11.2520 C.2    37  ASN37       0.2630
     45  OD1       26.0850   53.1120   12.1660 O.2    37  ASN37      -0.2716
     46  ND2       26.6890   53.8320   10.1410 N.am   37  ASN37      -0.0877
     47  N         27.2660   50.2210    9.7680 N.am   38  ARG38      -0.1963
     48  CA        26.2980   49.6130    8.8680 C.3    38  ARG38       0.1729
     49  C         26.9110   48.5470    7.9750 C.2    38  ARG38       0.2616
     50  O         26.1900   47.7660    7.3670 O.2    38  ARG38      -0.2715
     51  CB        25.6600   50.6810    7.9810 C.3    38  ARG38       0.0348
     52  CG        24.8650   51.7380    8.7200 C.3    38  ARG38       0.0492
     53  CD        24.3980   52.8010    7.7450 C.3    38  ARG38       0.2205
     54  NE        23.7190   52.2100    6.5940 N.pl3  38  ARG38      -0.0865
     55  CZ        22.6980   51.3650    6.6880 C.cat  38  ARG38       0.5346
     56  NH1       22.2440   51.0100    7.8800 N.pl3  38  ARG38       0.1354
     57  NH2       22.1200   50.8830    5.5950 N.pl3  38  ARG38       0.1354
     58  N         28.2360   48.5130    7.8920 N.am   39  ASN39      -0.1972
     59  CA        28.8950   47.5260    7.0470 C.3    39  ASN39       0.1688
     60  C         29.0110   46.1740    7.7290 C.2    39  ASN39       0.2292
     61  O         30.0980   45.7540    8.0990 O.2    39  ASN39      -0.2864
     62  CB        30.2920   47.9900    6.6420 C.3    39  ASN39       0.1181
     63  CG        30.8650   47.1520    5.5250 C.2    39  ASN39       0.2629
     64  OD1       30.6840   45.9350    5.4990 O.2    39  ASN39      -0.2716
     65  ND2       31.5610   47.7950    4.5920 N.am   39  ASN39      -0.0877
     66  N         26.7900   49.2460   15.1110 N.3    58  ALA58      -0.1245
     67  CA        26.1980   50.4580   15.6920 C.3    58  ALA58       0.1562
     68  C         24.7040   50.5640   15.4490 C.2    58  ALA58       0.2260
     69  O         23.9200   50.7270   16.3830 O.2    58  ALA58      -0.2867
     70  CB        26.8890   51.6940   15.1310 C.3    58  ALA58       0.0290
     71  N         28.4530   49.8820   21.7380 N.3    84  LEU84      -0.1245
     72  CA        29.7750   50.3870   21.3820 C.3    84  LEU84       0.1561
     73  C         30.4990   50.7490   22.6720 C.2    84  LEU84       0.2260
     74  O         31.6330   50.3370   22.8880 O.2    84  LEU84      -0.2867
     75  CB        29.6800   51.6280   20.4790 C.3    84  LEU84       0.0270
     76  CG        29.1100   51.5490   19.0540 C.3    84  LEU84       0.0019
     77  CD1       29.1470   52.9540   18.4330 C.3    84  LEU84       0.0001
     78  CD2       29.9170   50.5500   18.1970 C.3    84  LEU84       0.0001
     79  N         38.6590   54.5940   16.1230 N.3    98  ALA98      -0.1231
     80  CA        38.4890   55.0280   14.7320 C.3    98  ALA98       0.1694
     81  C         37.0620   55.4310   14.3550 C.2    98  ALA98       0.2592
     82  O         36.7700   55.6140   13.1800 O.2    98  ALA98      -0.2718
     83  CB        38.9850   53.9350   13.7700 C.3    98  ALA98       0.0304
     84  N         36.1720   55.5460   15.3380 N.am   99  ILE99      -0.1966
     85  CA        34.7980   55.9740   15.0830 C.3    99  ILE99       0.1727
     86  C         34.8610   57.5070   15.1330 C.2    99  ILE99       0.2616
     87  O         35.1520   58.0950   16.1740 O.2    99  ILE99      -0.2715
     88  CB        33.8080   55.4520   16.1720 C.3    99  ILE99       0.0290
     89  CG1       33.7510   53.9210   16.1630 C.3    99  ILE99       0.0022
     90  CG2       32.4360   56.0340   15.9420 C.3    99  ILE99       0.0023
     91  CD1       32.7640   53.3270   17.1770 C.3    99  ILE99       0.0001
     92  N         34.5930   58.1550   14.0080 N.am  100  ILE100     -0.1977
     93  CA        34.6690   59.6150   13.9360 C.3   100  ILE100      0.1596
     94  C         33.3750   60.3750   14.2160 C.2   100  ILE100      0.2287
     95  O         32.2770   59.8390   14.0450 O.2   100  ILE100     -0.2864
     96  CB        35.2000   60.0510   12.5560 C.3   100  ILE100      0.0276
     97  CG1       34.3030   59.4940   11.4560 C.3   100  ILE100      0.0022
     98  CG2       36.5840   59.5000   12.3290 C.3   100  ILE100      0.0022
     99  CD1       33.5930   60.5700   10.6850 C.3   100  ILE100      0.0001
    100  N         29.5440   60.6650   17.2920 N.3   103  ALA103     -0.1245
    101  CA        29.0980   59.2760   17.4610 C.3   103  ALA103      0.1562
    102  C         30.1240   58.3740   18.1250 C.2   103  ALA103      0.2260
    103  O         29.7780   57.3140   18.6580 O.2   103  ALA103     -0.2867
    104  CB        28.7000   58.6900   16.1260 C.3   103  ALA103      0.0290
@<TRIPOS>BOND
     1    65    63   am
     2    25    22    1
     3    25    26    1
     4    64    63    2
     5    63    62    1
     6    57    55    1
     7    22    21    1
     8    22    23    1
     9    21    19   am
    10    54    55    2
    11    54    53    1
    12    13    12    2
    13    62    59    1
    14    55    56    1
    15    20    19    2
    16    19    18    1
    17    59    60    1
    18    59    58    1
    19    24    23    2
    20    50    49    2
    21    18    17    1
    22    60    61    2
    23    53    52    1
    24    12    17   am
    25    12    11    1
    26    58    49   am
    27    49    48    1
    28    51    52    1
    29    51    48    1
    30    14    11    1
    31    14    16    1
    32    14    15    1
    33    11    10    1
    34    48    47    1
    35    47    41   am
    36     8     7    2
    37    46    44   am
    38    10     7   am
    39    99    97    1
    40     7     6    1
    41    41    42    2
    42    41    40    1
    43    44    43    1
    44    44    45    2
    45    43    40    1
    46    97    96    1
    47    38    35    1
    48    39    40    1
    49    39    36   am
    50     4     3    2
    51     6     9    1
    52     6     5    1
    53    98    96    1
    54    96    93    1
    55    35    36    1
    56    35    34    1
    57     3     5   am
    58     3     2    1
    59    36    37    2
    60    82    81    2
    61    30    29    2
    62     2     1    1
    63    83    80    1
    64    34    29   am
    65    93    92    1
    66    93    94    1
    67    92    86   am
    68    95    94    2
    69    29    28    1
    70    81    80    1
    71    81    84   am
    72    80    79    1
    73    85    86    1
    74    85    84    1
    75    85    88    1
    76    66    67    1
    77    70    67    1
    78    86    87    2
    79    68    67    1
    80    68    69    2
    81    28    27    1
    82    28    31    1
    83    90    88    1
    84   104   101    1
    85    89    88    1
    86    89    91    1
    87    32    31    1
    88    31    33    1
    89   100   101    1
    90   101   102    1
    91   102   103    2
    92    78    76    1
    93    77    76    1
    94    76    75    1
    95    75    72    1
    96    72    71    1
    97    72    73    1
    98    73    74    2
