@<TRIPOS>MOLECULE
tmp/1r0pA00.pdb
 188 182 0 0 0
SMALL
GASTEIGER

@<TRIPOS>ATOM
      1  N         17.6940    3.5900  136.3630 N.3    35  ILE35      -0.1231
      2  CA        17.4260    4.5080  137.4750 C.3    35  ILE35       0.1692
      3  C         15.9980    5.0670  137.4320 C.2    35  ILE35       0.2593
      4  O         15.2880    5.1030  138.4570 O.2    35  ILE35      -0.2718
      5  CB        18.4690    5.6500  137.4640 C.3    35  ILE35       0.0266
      6  CG1       19.8230    5.0970  137.9300 C.3    35  ILE35       0.0019
      7  CG2       18.0010    6.8090  138.3510 C.3    35  ILE35       0.0020
      8  CD1       20.9730    6.0120  137.7350 C.3    35  ILE35       0.0001
      9  N         15.6070    5.5600  136.2660 N.am   36  GLY36      -0.1942
     10  CA        14.2320    5.9790  136.0340 C.3    36  GLY36       0.2014
     11  C         13.9710    6.3740  134.5940 C.2    36  GLY36       0.2638
     12  O         14.9050    6.6600  133.8460 O.2    36  GLY36      -0.2714
     13  N         12.6980    6.4160  134.1970 N.am   37  ARG37      -0.1977
     14  CA        12.3500    6.8080  132.8330 C.3    37  ARG37       0.1597
     15  C         11.2600    7.8900  132.7640 C.2    37  ARG37       0.2287
     16  O         10.6600    8.2510  133.7650 O.2    37  ARG37      -0.2864
     17  CB        11.9770    5.5900  131.9760 C.3    37  ARG37       0.0334
     18  CG        10.6410    4.9660  132.2620 C.3    37  ARG37       0.0492
     19  CD        10.3940    3.6630  131.4920 C.3    37  ARG37       0.2205
     20  NE        11.3180    2.5980  131.8950 N.pl3  37  ARG37      -0.0865
     21  CZ        12.2380    2.0100  131.1120 C.cat  37  ARG37       0.5346
     22  NH1       12.4050    2.3730  129.8410 N.pl3  37  ARG37       0.1354
     23  NH2       13.0180    1.0570  131.6210 N.pl3  37  ARG37       0.1354
     24  N         11.1840   11.7580  128.0080 N.3    40  PHE40      -0.1241
     25  CA        12.4730   12.1680  127.4680 C.3    40  PHE40       0.1605
     26  C         13.3510   11.0070  126.9460 C.2    40  PHE40       0.2264
     27  O         14.2580   11.2430  126.1440 O.2    40  PHE40      -0.2867
     28  CB        13.2570   12.9080  128.5540 C.3    40  PHE40       0.0534
     29  CG        13.7270   12.0020  129.6740 C.ar   40  PHE40      -0.0203
     30  CD1       14.9240   11.2840  129.5530 C.ar   40  PHE40      -0.0042
     31  CD2       12.9730   11.8460  130.8210 C.ar   40  PHE40      -0.0042
     32  CE1       15.3420   10.4450  130.5540 C.ar   40  PHE40      -0.0003
     33  CE2       13.3840   11.0100  131.8270 C.ar   40  PHE40      -0.0003
     34  CZ        14.5630   10.3030  131.7050 C.ar   40  PHE40      -0.0000
     35  N         17.1000    6.9380  132.0680 N.3    43  VAL43      -0.1245
     36  CA        18.3460    7.1330  132.8080 C.3    43  VAL43       0.1561
     37  C         18.8200    5.7880  133.3430 C.2    43  VAL43       0.2260
     38  O         18.0610    5.0660  133.9960 O.2    43  VAL43      -0.2867
     39  CB        18.2000    8.1370  133.9730 C.3    43  VAL43       0.0252
     40  CG1       19.5210    8.3100  134.6900 C.3    43  VAL43       0.0019
     41  CG2       17.7020    9.5090  133.4640 C.3    43  VAL43       0.0019
     42  N         25.1220    8.6450  136.3950 N.3    55  ALA55      -0.1245
     43  CA        23.8080    8.4490  135.8160 C.3    55  ALA55       0.1562
     44  C         23.8810    8.8700  134.3520 C.2    55  ALA55       0.2260
     45  O         24.3730    9.9470  134.0280 O.2    55  ALA55      -0.2867
     46  CB        22.7790    9.2950  136.5410 C.3    55  ALA55       0.0290
     47  N         21.7330    9.7110  131.1900 N.3    57  LYS57      -0.1245
     48  CA        20.4640   10.0680  130.6150 C.3    57  LYS57       0.1561
     49  C         20.5710    9.8440  129.1220 C.2    57  LYS57       0.2260
     50  O         21.3290   10.5330  128.4380 O.2    57  LYS57      -0.2867
     51  CB        20.1440   11.5450  130.8980 C.3    57  LYS57       0.0271
     52  CG        18.7250   11.9660  130.5090 C.3    57  LYS57       0.0035
     53  CD        18.5980   13.4970  130.5120 C.3    57  LYS57       0.0206
     54  CE        17.1650   13.9460  130.1820 C.3    57  LYS57       0.1093
     55  NZ        17.0740   15.4220  129.8860 N.3    57  LYS57      -0.1314
     56  N         24.0220   20.5500  140.0360 N.3    87  LEU87      -0.1245
     57  CA        24.3310   19.2500  139.4550 C.3    87  LEU87       0.1561
     58  C         25.2220   19.5040  138.2530 C.2    87  LEU87       0.2260
     59  O         24.9100   20.3620  137.4260 O.2    87  LEU87      -0.2867
     60  CB        23.0660   18.5360  139.0110 C.3    87  LEU87       0.0270
     61  CG        23.2890   17.0810  138.5970 C.3    87  LEU87       0.0019
     62  CD1       23.5940   16.2320  139.8240 C.3    87  LEU87       0.0001
     63  CD2       22.1040   16.5720  137.8600 C.3    87  LEU87       0.0001
     64  N         25.7020   12.4160  133.9700 N.3   104  LEU104     -0.1231
     65  CA        25.5320   13.2140  135.1640 C.3   104  LEU104      0.1678
     66  C         26.0420   12.4390  136.3890 C.2   104  LEU104      0.2434
     67  O         26.1290   11.2270  136.3670 O.2   104  LEU104     -0.2733
     68  CB        24.0540   13.5460  135.3440 C.3   104  LEU104      0.0284
     69  CG        23.3870   14.2990  134.1880 C.3   104  LEU104      0.0019
     70  CD1       21.8700   14.3100  134.3270 C.3   104  LEU104      0.0001
     71  CD2       23.9270   15.7060  134.0930 C.3   104  LEU104      0.0001
     72  N         26.3510   13.1280  137.4810 N.am  105  PRO105     -0.2718
     73  CA        26.7170   12.4120  138.7130 C.3   105  PRO105      0.1535
     74  C         25.5590   11.5770  139.2450 C.2   105  PRO105      0.2599
     75  O         24.3880   11.9880  139.1260 O.2   105  PRO105     -0.2715
     76  CB        27.0540   13.5340  139.6980 C.3   105  PRO105      0.0310
     77  CG        27.1480   14.7720  138.9050 C.3   105  PRO105      0.0237
     78  CD        26.3850   14.5850  137.6530 C.3   105  PRO105      0.0939
     79  N         25.8830   10.4250  139.8320 N.am  106  TYR106     -0.1960
     80  CA        24.9130    9.6210  140.5390 C.3   106  TYR106      0.1771
     81  C         24.6620   10.1900  141.9270 C.2   106  TYR106      0.2619
     82  O         25.6070   10.4620  142.6930 O.2   106  TYR106     -0.2715
     83  CB        25.3680    8.1630  140.6560 C.3   106  TYR106      0.0574
     84  CG        24.3060    7.3210  141.3120 C.ar  106  TYR106     -0.0198
     85  CD1       23.0700    7.1470  140.6980 C.ar  106  TYR106     -0.0009
     86  CD2       24.5040    6.7640  142.5800 C.ar  106  TYR106     -0.0009
     87  CE1       22.0690    6.4170  141.3040 C.ar  106  TYR106      0.0417
     88  CE2       23.5100    6.0230  143.1880 C.ar  106  TYR106      0.0417
     89  CZ        22.2970    5.8490  142.5390 C.ar  106  TYR106      0.1957
     90  OH        21.3000    5.1330  143.1260 O.3   106  TYR106     -0.2866
     91  N         23.3780   10.3250  142.2450 N.am  107  MET107     -0.1963
     92  CA        22.9010   10.9020  143.4970 C.3   107  MET107      0.1736
     93  C         22.2790    9.7980  144.3470 C.2   107  MET107      0.2616
     94  O         21.1050    9.4650  144.1660 O.2   107  MET107     -0.2715
     95  CB        21.8550   11.9630  143.1810 C.3   107  MET107      0.0427
     96  CG        22.3910   13.1120  142.3720 C.3   107  MET107      0.0599
     97  SD        23.4530   14.2130  143.3860 S.3   107  MET107     -0.1393
     98  CE        24.8380   14.1070  142.5940 C.3   107  MET107      0.0692
     99  N         23.0660    9.2580  145.2830 N.am  108  LYS108     -0.1977
    100  CA        22.6780    8.1290  146.1270 C.3   108  LYS108      0.1596
    101  C         21.2870    8.2840  146.7270 C.2   108  LYS108      0.2287
    102  O         20.5110    7.3440  146.7360 O.2   108  LYS108     -0.2864
    103  CB        23.6810    7.9300  147.2780 C.3   108  LYS108      0.0298
    104  CG        23.3620    6.7750  148.2420 C.3   108  LYS108      0.0038
    105  CD        24.4140    6.6910  149.3430 C.3   108  LYS108      0.0206
    106  CE        24.1080    5.6140  150.3990 C.3   108  LYS108      0.1093
    107  NZ        25.2230    5.5790  151.4320 N.3   108  LYS108     -0.1314
    108  N         18.7110   10.2640  145.8670 N.3   110  GLY110     -0.1210
    109  CA        17.6310   10.6610  144.9780 C.3   110  GLY110      0.1956
    110  C         17.2370   12.1050  145.1660 C.2   110  GLY110      0.2611
    111  O         18.0710   12.9500  145.4830 O.2   110  GLY110     -0.2717
    112  N         15.9650   12.4050  144.9660 N.am  111  ASP111     -0.1973
    113  CA        15.5280   13.7890  145.0550 C.3   111  ASP111      0.1709
    114  C         15.1990   14.1570  146.4980 C.2   111  ASP111      0.2293
    115  O         14.8140   13.3160  147.3130 O.2   111  ASP111     -0.2864
    116  CB        14.3390   14.0470  144.1370 C.3   111  ASP111      0.1436
    117  CG        13.0920   13.4210  144.6560 C.2   111  ASP111      0.3671
    118  OD1       12.9020   12.2030  144.4090 O.co2 111  ASP111     -0.2456
    119  OD2       12.2810   14.0670  145.3490 O.co2 111  ASP111     -0.2456
    120  N         18.6330   17.2490  144.1250 N.3   158  MET158     -0.1245
    121  CA        19.0470   15.9010  144.4670 C.3   158  MET158      0.1570
    122  C         20.0740   15.9070  145.6060 C.2   158  MET158      0.2261
    123  O         20.6190   16.9440  145.9520 O.2   158  MET158     -0.2867
    124  CB        19.5350   15.1930  143.2070 C.3   158  MET158      0.0387
    125  CG        18.4400   15.2290  142.1130 C.3   158  MET158      0.0595
    126  SD        18.7020   13.9830  140.8780 S.3   158  MET158     -0.1393
    127  CE        17.9280   12.7160  141.6050 C.3   158  MET158      0.0692
    128  N         20.2540   18.5240  132.1980 N.3   173  ALA173     -0.1231
    129  CA        19.6560   17.7670  133.2950 C.3   173  ALA173      0.1694
    130  C         18.1540   18.0200  133.4900 C.2   173  ALA173      0.2592
    131  O         17.5720   17.5970  134.4760 O.2   173  ALA173     -0.2718
    132  CB        20.4060   18.0470  134.5820 C.3   173  ALA173      0.0304
    133  N         17.5080   18.6460  132.5110 N.am  174  ARG174     -0.1966
    134  CA        16.0600   18.7980  132.5260 C.3   174  ARG174      0.1729
    135  C         15.2940   17.4750  132.3850 C.2   174  ARG174      0.2616
    136  O         15.8960   16.4120  132.2010 O.2   174  ARG174     -0.2715
    137  CB        15.6470   19.7460  131.4060 C.3   174  ARG174      0.0348
    138  CG        15.8570   19.1810  130.0080 C.3   174  ARG174      0.0492
    139  CD        15.2280   20.0350  128.9240 C.3   174  ARG174      0.2205
    140  NE        15.7400   21.3930  128.9440 N.pl3 174  ARG174     -0.0865
    141  CZ        16.7880   21.8290  128.2720 C.cat 174  ARG174      0.5346
    142  NH1       17.1420   23.0960  128.4040 N.pl3 174  ARG174      0.1354
    143  NH2       17.4980   21.0200  127.4900 N.pl3 174  ARG174      0.1354
    144  N         13.9710   17.5720  132.4880 N.am  175  ASP175     -0.1957
    145  CA        13.0120   16.4690  132.2950 C.3   175  ASP175      0.1840
    146  C         12.8440   15.6050  133.5630 C.2   175  ASP175      0.2622
    147  O         12.4520   14.4550  133.4820 O.2   175  ASP175     -0.2715
    148  CB        13.3460   15.5340  131.1010 C.3   175  ASP175      0.1450
    149  CG        13.4880   16.2550  129.7740 C.2   175  ASP175      0.3671
    150  OD1       12.5960   17.0560  129.4130 O.co2 175  ASP175     -0.2456
    151  OD2       14.4750   16.0750  129.0140 O.co2 175  ASP175     -0.2456
    152  N         13.1610   16.1430  134.7340 N.am  176  MET176     -0.1963
    153  CA        12.8770   15.4560  135.9850 C.3   176  MET176      0.1736
    154  C         11.3620   15.3260  136.1870 C.2   176  MET176      0.2616
    155  O         10.5960   16.2790  135.9720 O.2   176  MET176     -0.2715
    156  CB        13.4970   16.2090  137.1800 C.3   176  MET176      0.0427
    157  CG        15.0110   16.1400  137.2440 C.3   176  MET176      0.0599
    158  SD        15.6320   14.6700  138.1320 S.3   176  MET176     -0.1393
    159  CE        15.1030   14.9060  139.9330 C.3   176  MET176      0.0692
    160  N         10.9500   14.1190  136.5700 N.am  177  TYR177     -0.1960
    161  CA         9.5610   13.7870  136.8360 C.3   177  TYR177      0.1771
    162  C          8.6080   14.3540  135.7880 C.2   177  TYR177      0.2620
    163  O          7.6430   15.0200  136.1360 O.2   177  TYR177     -0.2715
    164  CB         9.2030   14.2560  138.2460 C.3   177  TYR177      0.0574
    165  CG        10.0010   13.4940  139.2890 C.ar  177  TYR177     -0.0198
    166  CD1       10.9320   14.1400  140.1070 C.ar  177  TYR177     -0.0009
    167  CD2        9.8700   12.1210  139.4000 C.ar  177  TYR177     -0.0009
    168  CE1       11.6760   13.4290  141.0380 C.ar  177  TYR177      0.0417
    169  CE2       10.6070   11.4040  140.3090 C.ar  177  TYR177      0.0417
    170  CZ        11.5080   12.0660  141.1310 C.ar  177  TYR177      0.1957
    171  OH        12.2340   11.3300  142.0350 O.3   177  TYR177     -0.2866
    172  N          8.8810   14.0510  134.5150 N.am  178  ASP178     -0.1957
    173  CA         8.1640   14.6860  133.4040 C.3   178  ASP178      0.1840
    174  C          6.7800   14.0890  133.1160 C.2   178  ASP178      0.2621
    175  O          6.0470   14.6290  132.3050 O.2   178  ASP178     -0.2715
    176  CB         9.0480   14.8090  132.1450 C.3   178  ASP178      0.1450
    177  CG         9.3230   13.4770  131.4310 C.2   178  ASP178      0.3671
    178  OD1        8.8640   12.4060  131.8660 O.co2 178  ASP178     -0.2456
    179  OD2       10.0270   13.4420  130.3970 O.co2 178  ASP178     -0.2456
    180  N          6.4230   13.0010  133.7930 N.am  179  LYS179     -0.1977
    181  CA         5.0370   12.5010  133.8040 C.3   179  LYS179      0.1596
    182  C          4.1730   13.1740  134.8760 C.2   179  LYS179      0.2287
    183  O          2.9510   13.2290  134.7380 O.2   179  LYS179     -0.2864
    184  CB         5.0000   10.9810  134.0340 C.3   179  LYS179      0.0298
    185  CG         5.8190   10.1590  133.0470 C.3   179  LYS179      0.0038
    186  CD         6.3500    8.8550  133.6950 C.3   179  LYS179      0.0206
    187  CE         5.2520    7.8290  133.9160 C.3   179  LYS179      0.1093
    188  NZ         4.5800    7.4460  132.6360 N.3   179  LYS179     -0.1314
@<TRIPOS>BOND
     1    27    26    2
     2    26    25    1
     3    25    24    1
     4    25    28    1
     5   143   141    1
     6   141   142    1
     7   141   140    2
     8    50    49    2
     9    28    29    1
    10   139   140    1
    11   139   138    1
    12   151   149   ar
    13    49    48    1
    14   150   149   ar
    15    30    29   ar
    16    30    32   ar
    17    29    31   ar
    18   149   148    1
    19    22    21    1
    20    55    54    1
    21   138   137    1
    22    54    53    1
    23   179   177   ar
    24    52    53    1
    25    52    51    1
    26    32    34   ar
    27    48    51    1
    28    48    47    1
    29    31    33   ar
    30   148   145    1
    31    21    23    1
    32    21    20    2
    33   137   134    1
    34   177   178   ar
    35   177   176    1
    36    19    20    1
    37    19    18    1
    38    34    33   ar
    39    17    18    1
    40    17    14    1
    41    35    36    1
    42   176   173    1
    43   128   129    1
    44   136   135    2
    45   145   144    1
    46   145   146    1
    47   175   174    2
    48   135   144   am
    49   135   134    1
    50   133   134    1
    51   133   130   am
    52   188   187    1
    53    15    14    1
    54    15    16    2
    55    36    37    1
    56    36    39    1
    57    14    13    1
    58   185   186    1
    59   185   184    1
    60   174   173    1
    61   174   180   am
    62   129   130    1
    63   129   132    1
    64    37    38    2
    65   173   172    1
    66    41    39    1
    67   147   146    2
    68   130   131    2
    69   146   152   am
    70   186   187    1
    71   180   181    1
    72   181   184    1
    73   181   182    1
    74    12    11    2
    75    64    65    1
    76    39    40    1
    77    45    44    2
    78    71    69    1
    79    69    70    1
    80    69    68    1
    81    13    11   am
    82    44    43    1
    83   172   162   am
    84    11    10    1
    85   152   153    1
    86   183   182    2
    87    65    68    1
    88    65    66    1
    89   162   163    2
    90   162   161    1
    91    43    42    1
    92    43    46    1
    93   155   154    2
    94   153   154    1
    95   153   156    1
    96    10     9    1
    97   154   160   am
    98     9     3   am
    99     1     2    1
   100    67    66    2
   101    66    72   am
   102   160   161    1
   103   161   164    1
   104   156   157    1
   105   157   158    1
   106    59    58    2
   107     3     2    1
   108     3     4    2
   109     5     2    1
   110     5     6    1
   111     5     7    1
   112    72    78    1
   113    72    73    1
   114    78    77    1
   115     8     6    1
   116    63    61    1
   117   158   159    1
   118   164   165    1
   119    58    57    1
   120    61    60    1
   121    61    62    1
   122    73    74    1
   123    73    76    1
   124    77    76    1
   125    60    57    1
   126    75    74    2
   127    74    79   am
   128   165   167   ar
   129   165   166   ar
   130   167   169   ar
   131    57    56    1
   132    79    80    1
   133   166   168   ar
   134   169   170   ar
   135    80    83    1
   136    80    81    1
   137    83    84    1
   138    85    87   ar
   139    85    84   ar
   140   126   127    1
   141   126   125    1
   142   168   170   ar
   143   170   171    1
   144    87    89   ar
   145    84    86   ar
   146    81    91   am
   147    81    82    2
   148   125   124    1
   149    91    92    1
   150    96    95    1
   151    96    97    1
   152    89    90    1
   153    89    88   ar
   154    86    88   ar
   155    98    97    1
   156    95    92    1
   157   124   121    1
   158    92    93    1
   159   120   121    1
   160   116   117    1
   161   116   113    1
   162    94    93    2
   163    93    99   am
   164   118   117   ar
   165   121   122    1
   166   117   119   ar
   167   112   113    1
   168   112   110   am
   169   109   110    1
   170   109   108    1
   171   113   114    1
   172   110   111    2
   173    99   100    1
   174   122   123    2
   175   100   101    1
   176   100   103    1
   177   114   115    2
   178   101   102    2
   179   103   104    1
   180   104   105    1
   181   105   106    1
   182   106   107    1
