@<TRIPOS>MOLECULE
tmp/1r0yB00.pdb
 124 119 0 0 0
SMALL
GASTEIGER

@<TRIPOS>ATOM
      1  N        141.9380    4.6150   49.3060 N.3    13  TRP13      -0.1241
      2  CA       143.3490    4.6920   49.5830 C.3    13  TRP13       0.1605
      3  C        143.8300    6.1530   49.5320 C.2    13  TRP13       0.2264
      4  O        143.5450    6.8700   48.5890 O.2    13  TRP13      -0.2867
      5  CB       144.0480    3.8930   48.4950 C.3    13  TRP13       0.0550
      6  CG       144.1210    2.4910   48.8670 C.ar   13  TRP13       0.0003
      7  CD1      143.2670    1.4740   48.5010 C.ar   13  TRP13       0.0946
      8  CD2      145.0920    1.9000   49.7420 C.ar   13  TRP13       0.0152
      9  NE1      143.6680    0.2890   49.0810 N.ar   13  TRP13      -0.2442
     10  CE2      144.7760    0.5200   49.8540 C.ar   13  TRP13       0.0810
     11  CE3      146.2050    2.3950   50.4320 C.ar   13  TRP13       0.0012
     12  CZ2      145.5260   -0.3510   50.6020 C.ar   13  TRP13       0.0191
     13  CZ3      146.9370    1.5310   51.1820 C.ar   13  TRP13       0.0001
     14  CH2      146.6020    0.1590   51.2550 C.ar   13  TRP13       0.0015
     15  N        149.1520    1.5990   58.1800 N.3    21  LEU21      -0.1231
     16  CA       148.8500    0.1780   58.2680 C.3    21  LEU21       0.1693
     17  C        150.0870   -0.6340   58.5070 C.2    21  LEU21       0.2591
     18  O        150.0340   -1.6210   59.2330 O.2    21  LEU21      -0.2718
     19  CB       148.2060   -0.3480   56.9970 C.3    21  LEU21       0.0284
     20  CG       146.7220   -0.1400   56.7850 C.3    21  LEU21       0.0019
     21  CD1      146.4340   -0.7450   55.4050 C.3    21  LEU21       0.0001
     22  CD2      145.8310   -0.7490   57.9520 C.3    21  LEU21       0.0001
     23  N        151.2060   -0.2470   57.8970 N.am   22  GLU22      -0.1979
     24  CA       152.4450   -0.9460   58.2290 C.3    22  GLU22       0.1602
     25  C        152.6630   -0.8820   59.7620 C.2    22  GLU22       0.2287
     26  O        152.7590   -1.9200   60.4030 O.2    22  GLU22      -0.2864
     27  CB       153.6420   -0.4390   57.4190 C.3    22  GLU22       0.0415
     28  CG       153.5430   -0.6960   55.9000 C.3    22  GLU22       0.1163
     29  CD       154.7940   -0.2930   55.0920 C.2    22  GLU22       0.3649
     30  OE1      155.5160    0.6800   55.4380 O.co2  22  GLU22      -0.2457
     31  OE2      155.0690   -0.9630   54.0780 O.co2  22  GLU22      -0.2457
     32  N        150.2350   -3.1290   62.5440 N.3    25  GLN25      -0.1245
     33  CA       150.0950   -4.5900   62.4910 C.3    25  GLN25       0.1566
     34  C        151.4350   -5.2770   62.7540 C.2    25  GLN25       0.2260
     35  O        152.5000   -4.6380   62.6860 O.2    25  GLN25      -0.2867
     36  CB       149.5160   -5.0130   61.1270 C.3    25  GLN25       0.0367
     37  CG       148.4350   -4.0790   60.5740 C.3    25  GLN25       0.0905
     38  CD       147.2780   -4.8020   59.8760 C.2    25  GLN25       0.2608
     39  OE1      146.7690   -4.2580   58.8690 O.2    25  GLN25      -0.2717
     40  NE2      146.8510   -5.9020   60.3270 N.am   25  GLN25      -0.0878
     41  N        151.9220   -1.8180   45.8830 N.3    26  SER26      -0.1202
     42  CA       152.2030   -0.3590   45.6750 C.3    26  SER26       0.2020
     43  C        151.2020    0.7160   46.1460 C.2    26  SER26       0.2618
     44  O        150.2810    1.1210   45.3880 O.2    26  SER26      -0.2717
     45  CB       152.5800   -0.0260   44.2380 C.3    26  SER26       0.2103
     46  OG       152.8970    1.3620   44.1430 O.3    26  SER26      -0.2182
     47  N        151.4840    1.2770   47.3240 N.am   27  PHE27      -0.1975
     48  CA       150.6220    2.2960   47.9360 C.3    27  PHE27       0.1639
     49  C        150.3870    3.4580   47.0600 C.2    27  PHE27       0.2290
     50  O        149.2670    3.9590   47.0140 O.2    27  PHE27      -0.2864
     51  CB       151.1720    2.8200   49.2740 C.3    27  PHE27       0.0560
     52  CG       151.3790    1.7440   50.2950 C.ar   27  PHE27      -0.0200
     53  CD1      150.4790    0.6750   50.3830 C.ar   27  PHE27      -0.0042
     54  CD2      152.4590    1.8140   51.1930 C.ar   27  PHE27      -0.0042
     55  CE1      150.6670   -0.3350   51.3310 C.ar   27  PHE27      -0.0003
     56  CE2      152.6660    0.7900   52.1430 C.ar   27  PHE27      -0.0003
     57  CZ       151.7640   -0.2990   52.2150 C.ar   27  PHE27      -0.0000
     58  N        147.9280    2.5320   44.2850 N.3    30  LEU30      -0.1245
     59  CA       146.5490    2.6140   44.7790 C.3    30  LEU30       0.1561
     60  C        146.0230    3.9990   44.9550 C.2    30  LEU30       0.2260
     61  O        144.8610    4.2030   44.7490 O.2    30  LEU30      -0.2867
     62  CB       146.3510    1.8750   46.1010 C.3    30  LEU30       0.0270
     63  CG       146.5620    0.3620   45.9580 C.3    30  LEU30       0.0019
     64  CD1      147.0260   -0.2560   47.3000 C.3    30  LEU30       0.0001
     65  CD2      145.3320   -0.3420   45.3400 C.3    30  LEU30       0.0001
     66  N        139.5330    1.0060   49.6730 N.3    37  VAL37      -0.1245
     67  CA       140.0470   -0.0450   50.5480 C.3    37  VAL37       0.1561
     68  C        138.8530   -0.6940   51.2550 C.2    37  VAL37       0.2260
     69  O        138.9330   -1.8410   51.6510 O.2    37  VAL37      -0.2867
     70  CB       141.0210    0.4660   51.6740 C.3    37  VAL37       0.0252
     71  CG1      140.2640    1.4210   52.6790 C.3    37  VAL37       0.0019
     72  CG2      141.6040   -0.7390   52.4400 C.3    37  VAL37       0.0019
     73  N        142.5470  -12.9070   55.0720 N.3    57  THR57      -0.1203
     74  CA       143.7240  -12.0260   55.1700 C.3    57  THR57       0.1994
     75  C        143.6860  -10.8300   54.2160 C.2    57  THR57       0.2618
     76  O        143.2710  -10.9840   53.0790 O.2    57  THR57      -0.2717
     77  CB       144.9690  -12.8300   54.8900 C.3    57  THR57       0.1784
     78  OG1      146.1230  -12.0440   55.2500 O.3    57  THR57      -0.2211
     79  CG2      145.0970  -13.0770   53.3470 C.3    57  THR57       0.0376
     80  N        144.0860   -9.6390   54.6770 N.am   58  GLY58      -0.1942
     81  CA       143.9650   -8.4080   53.9070 C.3    58  GLY58       0.2014
     82  C        142.5920   -8.0560   53.3240 C.2    58  GLY58       0.2640
     83  O        142.5080   -7.4140   52.2540 O.2    58  GLY58      -0.2714
     84  N        141.4980   -8.4070   53.9970 N.am   59  SER59      -0.1935
     85  CA       140.1680   -7.9870   53.5400 C.3    59  SER59       0.2055
     86  C        139.8400   -6.5370   53.9190 C.2    59  SER59       0.2644
     87  O        138.8700   -5.9360   53.4120 O.2    59  SER59      -0.2714
     88  CB       139.1210   -8.9180   54.1070 C.3    59  SER59       0.2130
     89  OG       139.4380   -9.1840   55.4630 O.3    59  SER59      -0.2179
     90  N        140.6570   -5.9350   54.7750 N.am   60  GLY60      -0.1939
     91  CA       140.2940   -4.5880   55.2460 C.3    60  GLY60       0.2014
     92  C        139.8160   -4.4910   56.7020 C.2    60  GLY60       0.2639
     93  O        139.2190   -3.4700   57.0690 O.2    60  GLY60      -0.2714
     94  N        140.0990   -5.5110   57.5260 N.am   61  LYS61      -0.1963
     95  CA       139.5880   -5.5520   58.9030 C.3    61  LYS61       0.1728
     96  C        140.2180   -4.4370   59.7630 C.2    61  LYS61       0.2617
     97  O        139.5040   -3.7220   60.4500 O.2    61  LYS61      -0.2715
     98  CB       139.8560   -6.9110   59.5410 C.3    61  LYS61       0.0311
     99  CG       138.9590   -7.9570   58.9380 C.3    61  LYS61       0.0038
    100  CD       139.2570   -9.3800   59.3290 C.3    61  LYS61       0.0206
    101  CE       140.7100   -9.6020   59.4890 C.3    61  LYS61       0.1093
    102  NZ       141.3500  -10.1240   58.2840 N.3    61  LYS61      -0.1314
    103  N        141.5490   -4.3210   59.7260 N.am   62  THR62      -0.1937
    104  CA       142.2660   -3.3270   60.4500 C.3    62  THR62       0.2028
    105  C        141.9760   -1.9330   59.8920 C.2    62  THR62       0.2642
    106  O        141.9450   -0.9730   60.6940 O.2    62  THR62      -0.2714
    107  CB       143.7570   -3.6310   60.3860 C.3    62  THR62       0.1808
    108  OG1      144.0200   -4.8250   61.1520 O.3    62  THR62      -0.2208
    109  CG2      144.5720   -2.5660   61.1260 C.3    62  THR62       0.0379
    110  N        141.7720   -1.7900   58.5620 N.am   63  SER63      -0.1949
    111  CA       141.3940   -0.4890   58.0050 C.3    63  SER63       0.1924
    112  C        140.0160   -0.0100   58.4860 C.2    63  SER63       0.2314
    113  O        139.8030    1.2030   58.6210 O.2    63  SER63      -0.2863
    114  CB       141.4420   -0.4920   56.4940 C.3    63  SER63       0.2116
    115  OG       142.7420   -0.8900   56.0320 O.3    63  SER63      -0.2180
    116  N        138.1200   -8.9470   50.4070 N.3   218  GLN218     -0.1245
    117  CA       138.5150   -8.0520   49.3080 C.3   218  GLN218      0.1566
    118  C        137.8840   -6.6850   49.5030 C.2   218  GLN218      0.2260
    119  O        137.4650   -6.0390   48.5680 O.2   218  GLN218     -0.2867
    120  CB       138.2580   -8.6860   47.8970 C.3   218  GLN218      0.0367
    121  CG       139.5850   -8.6850   46.9390 C.3   218  GLN218      0.0905
    122  CD       140.6590   -9.5860   47.4340 C.2   218  GLN218      0.2608
    123  OE1      140.4030  -10.7360   47.6800 O.2   218  GLN218     -0.2717
    124  NE2      141.8270   -9.0770   47.6350 N.am  218  GLN218     -0.0878
@<TRIPOS>BOND
     1    46    45    1
     2    45    42    1
     3    58    59    1
     4    61    60    2
     5    59    60    1
     6    59    62    1
     7    65    63    1
     8    44    43    2
     9    42    41    1
    10    42    43    1
    11    63    62    1
    12    63    64    1
    13    43    47   am
    14   121   122    1
    15   121   120    1
    16    50    49    2
    17    49    48    1
    18    47    48    1
    19   122   124   am
    20   122   123    2
    21   120   117    1
    22    48    51    1
    23     5     6    1
    24     5     2    1
    25     7     6   ar
    26     7     9   ar
    27   119   118    2
    28     4     3    2
    29     6     8   ar
    30     9    10   ar
    31    51    52    1
    32     1     2    1
    33   117   118    1
    34   117   116    1
    35     3     2    1
    36    66    67    1
    37     8    10   ar
    38     8    11   ar
    39    10    12   ar
    40    52    53   ar
    41    52    54   ar
    42    53    55   ar
    43    11    13   ar
    44    67    68    1
    45    67    70    1
    46    12    14   ar
    47    13    14   ar
    48    54    56   ar
    49    68    69    2
    50    55    57   ar
    51    70    72    1
    52    70    71    1
    53    56    57   ar
    54    83    82    2
    55    76    75    2
    56    82    81    1
    57    82    84   am
    58    79    77    1
    59    87    86    2
    60    85    86    1
    61    85    84    1
    62    85    88    1
    63    81    80    1
    64    86    90   am
    65    31    29   ar
    66    88    89    1
    67    75    80   am
    68    75    74    1
    69    90    91    1
    70    77    74    1
    71    77    78    1
    72    73    74    1
    73    29    30   ar
    74    29    28    1
    75    91    92    1
    76    21    20    1
    77    28    27    1
    78   115   114    1
    79   114   111    1
    80    92    93    2
    81    92    94   am
    82    20    19    1
    83    20    22    1
    84    19    16    1
    85    27    24    1
    86    94    95    1
    87    23    24    1
    88    23    17   am
    89   111   112    1
    90   111   110    1
    91    15    16    1
    92    24    25    1
    93    16    17    1
    94   102   101    1
    95   112   113    2
    96    17    18    2
    97   110   105   am
    98    39    38    2
    99    95    98    1
   100    95    96    1
   101    99   100    1
   102    99    98    1
   103   100   101    1
   104   103    96   am
   105   103   104    1
   106    25    26    2
   107    96    97    2
   108    38    40   am
   109    38    37    1
   110   105   104    1
   111   105   106    2
   112   107   104    1
   113   107   109    1
   114   107   108    1
   115    37    36    1
   116    36    33    1
   117    33    32    1
   118    33    34    1
   119    35    34    2
