@<TRIPOS>MOLECULE
tmp/1r0zC00.pdb
 142 134 0 0 0
SMALL
GASTEIGER

@<TRIPOS>ATOM
      1  N         98.5140   13.5690   90.1260 N.3    14  TRP14      -0.1241
      2  CA        97.7050   12.7370   91.0100 C.3    14  TRP14       0.1605
      3  C         96.4870   12.1920   90.2410 C.2    14  TRP14       0.2264
      4  O         95.7340   12.9360   89.6110 O.2    14  TRP14      -0.2867
      5  CB        97.2540   13.5350   92.2580 C.3    14  TRP14       0.0550
      6  CG        98.3280   13.7400   93.2920 C.ar   14  TRP14       0.0003
      7  CD1       99.2260   14.7680   93.3580 C.ar   14  TRP14       0.0946
      8  CD2       98.6380   12.8690   94.3880 C.ar   14  TRP14       0.0152
      9  NE1      100.0840   14.5920   94.4170 N.ar   14  TRP14      -0.2442
     10  CE2       99.7500   13.4300   95.0660 C.ar   14  TRP14       0.0810
     11  CE3       98.0830   11.6760   94.8660 C.ar   14  TRP14       0.0012
     12  CZ2      100.3240   12.8250   96.2040 C.ar   14  TRP14       0.0191
     13  CZ3       98.6440   11.0760   95.9990 C.ar   14  TRP14       0.0001
     14  CH2       99.7570   11.6510   96.6530 C.ar   14  TRP14       0.0015
     15  N        100.0010    4.1420   97.6720 N.3    22  LEU22      -0.1231
     16  CA       101.1470    4.5800   98.4650 C.3    22  LEU22       0.1693
     17  C        100.9840    4.1710   99.9430 C.2    22  LEU22       0.2591
     18  O        101.9690    3.8700  100.6330 O.2    22  LEU22      -0.2718
     19  CB       101.3430    6.0830   98.3520 C.3    22  LEU22       0.0284
     20  CG       101.9050    6.6300   97.0650 C.3    22  LEU22       0.0019
     21  CD1      101.8740    8.1440   97.0820 C.3    22  LEU22       0.0001
     22  CD2      103.3210    6.1390   96.9100 C.3    22  LEU22       0.0001
     23  N         99.7430    4.1650  100.4320 N.am   23  GLU23      -0.1979
     24  CA        99.4970    3.7850  101.8140 C.3    23  GLU23       0.1602
     25  C         99.6730    2.2850  101.9720 C.2    23  GLU23       0.2287
     26  O         99.9880    1.8080  103.0730 O.2    23  GLU23      -0.2864
     27  CB        98.1130    4.1970  102.2640 C.3    23  GLU23       0.0415
     28  CG        98.0580    5.5790  102.8680 C.3    23  GLU23       0.1163
     29  CD        96.6320    6.0730  103.0290 C.2    23  GLU23       0.3649
     30  OE1       95.7160    5.4130  102.4860 O.co2  23  GLU23      -0.2457
     31  OE2       96.4370    7.1220  103.6890 O.co2  23  GLU23      -0.2457
     32  N        102.8550   -0.3680  103.3200 N.3    26  GLN26      -0.1245
     33  CA       103.1570   -0.4000  104.7470 C.3    26  GLN26       0.1566
     34  C        102.5650   -1.6230  105.4590 C.2    26  GLN26       0.2260
     35  O        101.9050   -2.4600  104.7840 O.2    26  GLN26      -0.2867
     36  CB       102.6920    0.8640  105.4260 C.3    26  GLN26       0.0367
     37  CG       103.7900    1.5750  106.1870 C.3    26  GLN26       0.0905
     38  CD       103.3840    2.9870  106.5940 C.2    26  GLN26       0.2608
     39  OE1      103.1760    3.8690  105.7340 O.2    26  GLN26      -0.2717
     40  NE2      103.2600    3.2120  107.9070 N.am   26  GLN26      -0.0878
     41  N        101.0980   15.1080  107.5180 N.3    31  GLU31      -0.1245
     42  CA       100.1900   14.7070  106.4400 C.3    31  GLU31       0.1567
     43  C         98.7070   14.8620  106.7890 C.2    31  GLU31       0.2260
     44  O         97.8500   14.4930  105.9930 O.2    31  GLU31      -0.2867
     45  CB       100.4820   13.2580  106.0060 C.3    31  GLU31       0.0388
     46  CG       101.9320   13.0040  105.5980 C.3    31  GLU31       0.1160
     47  CD       102.3150   11.5280  105.5890 C.2    31  GLU31       0.3649
     48  OE1      103.2120   11.1500  104.7980 O.co2  31  GLU31      -0.2457
     49  OE2      101.7270   10.7460  106.3670 O.co2  31  GLU31      -0.2457
     50  N         96.2320   16.2780  104.3630 N.3    34  VAL34      -0.1245
     51  CA        96.2990   15.7650  102.9960 C.3    34  VAL34       0.1561
     52  C         94.9760   15.0450  102.6970 C.2    34  VAL34       0.2260
     53  O         94.4970   14.2340  103.4960 O.2    34  VAL34      -0.2867
     54  CB        97.5030   14.7780  102.8180 C.3    34  VAL34       0.0252
     55  CG1       97.4480   14.1130  101.4170 C.3    34  VAL34       0.0019
     56  CG2       98.8450   15.5400  103.0250 C.3    34  VAL34       0.0019
     57  N         93.6390   12.9100   99.4440 N.3    36  PHE36      -0.1241
     58  CA        94.0340   12.4140   98.1320 C.3    36  PHE36       0.1605
     59  C         93.0250   12.8350   97.1110 C.2    36  PHE36       0.2264
     60  O         93.3610   13.0640   95.9630 O.2    36  PHE36      -0.2867
     61  CB        94.1840   10.9150   98.1020 C.3    36  PHE36       0.0534
     62  CG        95.2940   10.4130   98.9490 C.ar   36  PHE36      -0.0203
     63  CD1       96.4950   11.1230   99.0330 C.ar   36  PHE36      -0.0042
     64  CD2       95.1460    9.2320   99.6860 C.ar   36  PHE36      -0.0042
     65  CE1       97.5500   10.6660   99.8500 C.ar   36  PHE36      -0.0003
     66  CE2       96.1830    8.7760  100.4960 C.ar   36  PHE36      -0.0003
     67  CZ        97.3930    9.5000  100.5780 C.ar   36  PHE36      -0.0000
     68  N         93.8600   16.4930   95.9680 N.3    39  LEU39      -0.1245
     69  CA        94.9730   16.5280   95.0430 C.3    39  LEU39       0.1561
     70  C         94.5150   16.1390   93.6440 C.2    39  LEU39       0.2260
     71  O         95.0830   16.6040   92.6750 O.2    39  LEU39      -0.2867
     72  CB        96.0770   15.6260   95.5340 C.3    39  LEU39       0.0270
     73  CG        96.6340   16.0870   96.8560 C.3    39  LEU39       0.0019
     74  CD1       97.4700   14.9940   97.4930 C.3    39  LEU39       0.0001
     75  CD2       97.4640   17.3460   96.6220 C.3    39  LEU39       0.0001
     76  N        102.3650   15.1070   91.0140 N.3    46  VAL46      -0.1245
     77  CA       103.2030   14.5260   92.0550 C.3    46  VAL46       0.1561
     78  C        104.6710   14.5860   91.6430 C.2    46  VAL46       0.2260
     79  O        105.5660   14.6880   92.4920 O.2    46  VAL46      -0.2867
     80  CB       102.7860   13.0660   92.3900 C.3    46  VAL46       0.0252
     81  CG1      102.8110   12.2030   91.1700 C.3    46  VAL46       0.0019
     82  CG2      103.7150   12.4900   93.4440 C.3    46  VAL46       0.0019
     83  N        112.1860   14.2530  102.6880 N.3    66  THR66      -0.1203
     84  CA       111.1120   13.3290  102.9470 C.3    66  THR66       0.1994
     85  C        109.8390   13.8380  102.2790 C.2    66  THR66       0.2618
     86  O        109.5540   15.0290  102.2750 O.2    66  THR66      -0.2717
     87  CB       110.9670   13.0720  104.4730 C.3    66  THR66       0.1784
     88  OG1      109.5780   13.0160  104.8490 O.3    66  THR66      -0.2211
     89  CG2      111.7190   14.0830  105.2420 C.3    66  THR66       0.0376
     90  N        109.1230   12.9280  101.6340 N.am   67  GLY67      -0.1942
     91  CA       107.8980   13.2980  100.9580 C.3    67  GLY67       0.2014
     92  C        108.0870   13.8970   99.5800 C.2    67  GLY67       0.2640
     93  O        107.1440   14.4620   99.0170 O.2    67  GLY67      -0.2714
     94  N        109.2740   13.7640   98.9960 N.am   68  SER68      -0.1935
     95  CA       109.5500   14.4780   97.7420 C.3    68  SER68       0.2055
     96  C        109.1000   13.8110   96.4420 C.2    68  SER68       0.2644
     97  O        109.2400   14.4080   95.3810 O.2    68  SER68      -0.2714
     98  CB       111.0100   14.8660   97.6520 C.3    68  SER68       0.2130
     99  OG       111.7610   13.7080   97.9530 O.3    68  SER68      -0.2179
    100  N        108.5370   12.6020   96.5120 N.am   69  GLY69      -0.1939
    101  CA       108.1650   11.8860   95.3080 C.3    69  GLY69       0.2014
    102  C        109.1040   10.7320   94.9170 C.2    69  GLY69       0.2639
    103  O        109.0150   10.2290   93.7970 O.2    69  GLY69      -0.2714
    104  N        109.9990   10.3080   95.8070 N.am   70  LYS70      -0.1963
    105  CA       110.9450    9.2260   95.5000 C.3    70  LYS70       0.1728
    106  C        110.2340    7.8930   95.1510 C.2    70  LYS70       0.2617
    107  O        110.4860    7.2840   94.0880 O.2    70  LYS70      -0.2715
    108  CB       111.9610    9.0440   96.6380 C.3    70  LYS70       0.0311
    109  CG       112.8120   10.2740   96.8800 C.3    70  LYS70       0.0038
    110  CD       113.8040   10.1560   98.0540 C.3    70  LYS70       0.0206
    111  CE       113.1600    9.7410   99.4090 C.3    70  LYS70       0.1093
    112  NZ       112.1500   10.7030   99.9720 N.3    70  LYS70      -0.1314
    113  N        109.3250    7.4450   96.0230 N.am   71  THR71      -0.1937
    114  CA       108.5770    6.2210   95.7730 C.3    71  THR71       0.2028
    115  C        107.6390    6.3670   94.5650 C.2    71  THR71       0.2642
    116  O        107.4020    5.4170   93.7830 O.2    71  THR71      -0.2714
    117  CB       107.8090    5.8460   97.0410 C.3    71  THR71       0.1808
    118  OG1      108.7590    5.6270   98.0910 O.3    71  THR71      -0.2208
    119  CG2      106.9540    4.5890   96.8430 C.3    71  THR71       0.0379
    120  N        107.1130    7.5660   94.3960 N.am   72  SER72      -0.1949
    121  CA       106.2060    7.8300   93.2970 C.3    72  SER72       0.1924
    122  C        106.9490    7.6780   91.9820 C.2    72  SER72       0.2314
    123  O        106.4040    7.1860   91.0360 O.2    72  SER72      -0.2863
    124  CB       105.6100    9.2380   93.4230 C.3    72  SER72       0.2116
    125  OG       104.5930    9.1760   94.4140 O.3    72  SER72      -0.2180
    126  N        109.8180   -0.3760  100.0930 N.3    99  GLN99      -0.1245
    127  CA       110.1140    0.1800  101.4110 C.3    99  GLN99       0.1566
    128  C        109.5490   -0.7230  102.5210 C.2    99  GLN99       0.2260
    129  O        110.2280   -0.9980  103.4970 O.2    99  GLN99      -0.2867
    130  CB       109.5220    1.5860  101.5050 C.3    99  GLN99       0.0367
    131  CG       110.4330    2.6450  102.1490 C.3    99  GLN99       0.0905
    132  CD       109.9710    4.1140  101.8960 C.2    99  GLN99       0.2608
    133  OE1      109.1620    4.4270  100.9700 O.2    99  GLN99      -0.2717
    134  NE2      110.5010    5.0230  102.7260 N.am   99  GLN99      -0.0878
    135  N        113.8660    0.5010   96.8890 N.3   178  ASP178     -0.1239
    136  CA       113.3270    1.6360   97.6470 C.3   178  ASP178      0.1674
    137  C        113.7220    1.5600   99.1040 C.2   178  ASP178      0.2266
    138  O        113.0640    0.8860   99.8740 O.2   178  ASP178     -0.2867
    139  CB       111.8140    1.6870   97.5350 C.3   178  ASP178      0.1410
    140  CG       111.2270    3.0690   97.9230 C.2   178  ASP178      0.3668
    141  OD1      111.9280    3.8990   98.5700 O.co2 178  ASP178     -0.2456
    142  OD2      110.0560    3.3190   97.5720 O.co2 178  ASP178     -0.2456
@<TRIPOS>BOND
     1     4     3    2
     2     1     2    1
     3     3     2    1
     4     2     5    1
     5    76    77    1
     6   123   122    2
     7    81    80    1
     8    78    77    1
     9    78    79    2
    10   122   121    1
    11    77    80    1
    12     5     6    1
    13    80    82    1
    14    71    70    2
    15     6     7   ar
    16     6     8   ar
    17   121   124    1
    18   121   120    1
    19     7     9   ar
    20   124   125    1
    21    70    69    1
    22   116   115    2
    23   103   102    2
    24   107   106    2
    25     8    11   ar
    26     8    10   ar
    27   120   115   am
    28     9    10   ar
    29   115   114    1
    30    11    13   ar
    31   102   101    1
    32   102   104   am
    33    69    72    1
    34    69    68    1
    35    10    12   ar
    36   106   105    1
    37   106   113   am
    38   101   100    1
    39    97    96    2
    40   105   104    1
    41   105   108    1
    42    72    73    1
    43   114   113    1
    44   114   117    1
    45    60    59    2
    46    13    14   ar
    47    12    14   ar
    48    96   100   am
    49    96    95    1
    50    75    73    1
    51   108   109    1
    52   119   117    1
    53    73    74    1
    54   109   110    1
    55   135   136    1
    56    22    20    1
    57   117   118    1
    58    20    21    1
    59    20    19    1
    60    59    58    1
    61   139   136    1
    62   139   140    1
    63   142   140   ar
    64   136   137    1
    65    98    95    1
    66    98    99    1
    67    15    16    1
    68    95    94    1
    69   140   141   ar
    70   110   111    1
    71    61    58    1
    72    61    62    1
    73    58    57    1
    74    19    16    1
    75    16    17    1
    76    62    63   ar
    77    62    64   ar
    78    94    92   am
    79    93    92    2
    80    63    65   ar
    81   137   138    2
    82   111   112    1
    83    92    91    1
    84    64    66   ar
    85    65    67   ar
    86    17    23   am
    87    17    18    2
    88   126   127    1
    89    23    24    1
    90    66    67   ar
    91    91    90    1
    92   133   132    2
    93   127   130    1
    94   127   128    1
    95    55    54    1
    96   130   131    1
    97    90    85   am
    98    24    25    1
    99    24    27    1
   100   132   131    1
   101   132   134   am
   102    25    26    2
   103    27    28    1
   104    86    85    2
   105    85    84    1
   106    30    29   ar
   107   128   129    2
   108    83    84    1
   109    52    51    1
   110    52    53    2
   111    54    51    1
   112    54    56    1
   113    28    29    1
   114    84    87    1
   115    51    50    1
   116    29    31   ar
   117    32    33    1
   118    87    88    1
   119    87    89    1
   120    33    36    1
   121    33    34    1
   122    35    34    2
   123    48    47   ar
   124    36    37    1
   125    47    46    1
   126    47    49   ar
   127    46    45    1
   128    39    38    2
   129    44    43    2
   130    45    42    1
   131    37    38    1
   132    42    43    1
   133    42    41    1
   134    38    40   am
