@<TRIPOS>MOLECULE
tmp/1r15B02.pdb
 122 123 0 0 0
SMALL
GASTEIGER

@<TRIPOS>ATOM
      1  N         14.6050   16.6330  -14.3550 N.3     1  ILE1       -0.1245
      2  CA        13.9730   15.7810  -13.2920 C.3     1  ILE1        0.1561
      3  C         14.8310   15.8010  -12.0240 C.2     1  ILE1        0.2260
      4  O         16.0670   15.6920  -12.0960 O.2     1  ILE1       -0.2867
      5  CB        13.7990   14.3000  -13.7800 C.3     1  ILE1        0.0252
      6  CG1       12.8420   13.5330  -12.8500 C.3     1  ILE1        0.0019
      7  CG2       15.1700   13.5760  -13.8180 C.3     1  ILE1        0.0019
      8  CD1       12.4330   12.1270  -13.3820 C.3     1  ILE1        0.0001
      9  N         22.8990   -3.4720  -13.3280 N.3    58  TYR58      -0.1241
     10  CA        22.2950   -3.8750  -12.0690 C.3    58  TYR58       0.1605
     11  C         22.1660   -5.3810  -11.9400 C.2    58  TYR58       0.2264
     12  O         21.4680   -5.8670  -11.0700 O.2    58  TYR58      -0.2867
     13  CB        20.9080   -3.2380  -11.9080 C.3    58  TYR58       0.0534
     14  CG        20.8940   -1.7380  -11.8650 C.ar   58  TYR58      -0.0201
     15  CD1       21.0610   -1.0590  -10.6680 C.ar   58  TYR58      -0.0009
     16  CD2       20.6920   -0.9910  -13.0130 C.ar   58  TYR58      -0.0009
     17  CE1       21.0250    0.3280  -10.6230 C.ar   58  TYR58       0.0417
     18  CE2       20.6540    0.3930  -12.9700 C.ar   58  TYR58       0.0417
     19  CZ        20.8190    1.0470  -11.7680 C.ar   58  TYR58       0.1957
     20  OH        20.7120    2.4320  -11.7000 O.3    58  TYR58      -0.2866
     21  N         11.4270    6.0440   -7.1660 N.3   109  LEU109     -0.1231
     22  CA        12.6190    6.7930   -6.8550 C.3   109  LEU109      0.1693
     23  C         13.3590    7.2750   -8.1090 C.2   109  LEU109      0.2592
     24  O         13.2530    6.6770   -9.1910 O.2   109  LEU109     -0.2718
     25  CB        13.5260    5.9580   -5.9570 C.3   109  LEU109      0.0284
     26  CG        12.7730    5.4410   -4.7380 C.3   109  LEU109      0.0019
     27  CD1       13.7610    4.8590   -3.7650 C.3   109  LEU109      0.0001
     28  CD2       12.0020    6.5860   -4.0590 C.3   109  LEU109      0.0001
     29  N         14.0770    8.3880   -7.9520 N.am  110  VAL110     -0.1966
     30  CA        14.8480    9.0120   -9.0180 C.3   110  VAL110      0.1727
     31  C         16.3040    9.1390   -8.5690 C.2   110  VAL110      0.2616
     32  O         16.6050    9.7060   -7.5120 O.2   110  VAL110     -0.2715
     33  CB        14.3090   10.4380   -9.3620 C.3   110  VAL110      0.0290
     34  CG1       15.0690   11.0180  -10.5280 C.3   110  VAL110      0.0023
     35  CG2       12.8450   10.3810   -9.7210 C.3   110  VAL110      0.0023
     36  N         17.2100    8.6240   -9.3900 N.am  111  TRP111     -0.1960
     37  CA        18.6190    8.6660   -9.0650 C.3   111  TRP111      0.1771
     38  C         19.4210    8.5050  -10.3260 C.2   111  TRP111      0.2619
     39  O         18.9160    8.0330  -11.3330 O.2   111  TRP111     -0.2715
     40  CB        18.9590    7.5360   -8.1060 C.3   111  TRP111      0.0590
     41  CG        18.9100    6.1990   -8.7800 C.ar  111  TRP111      0.0006
     42  CD1       19.9310    5.5830   -9.4240 C.ar  111  TRP111      0.0946
     43  CD2       17.7780    5.3340   -8.8910 C.ar  111  TRP111      0.0152
     44  NE1       19.5130    4.3820   -9.9270 N.ar  111  TRP111     -0.2442
     45  CE2       18.1940    4.2030   -9.6160 C.ar  111  TRP111      0.0810
     46  CE3       16.4500    5.4080   -8.4440 C.ar  111  TRP111      0.0012
     47  CZ2       17.3370    3.1350   -9.9090 C.ar  111  TRP111      0.0191
     48  CZ3       15.5880    4.3470   -8.7310 C.ar  111  TRP111      0.0001
     49  CH2       16.0460    3.2180   -9.4610 C.ar  111  TRP111      0.0015
     50  N         20.6820    8.9020  -10.2710 N.am  112  CYS112     -0.1968
     51  CA        21.5680    8.7930  -11.4150 C.3   112  CYS112      0.1712
     52  C         22.9560    9.0390  -10.9270 C.2   112  CYS112      0.2296
     53  O         23.1600    9.6810   -9.9050 O.2   112  CYS112     -0.2864
     54  CB        21.2210    9.8070  -12.5070 C.3   112  CYS112      0.0983
     55  SG        21.2400   11.5570  -11.9930 S.3   112  CYS112     -0.0798
     56  N         18.8930   15.0150  -12.5030 N.3   125  CYS125     -0.1235
     57  CA        19.1000   13.8250  -13.3050 C.3   125  CYS125      0.1677
     58  C         18.6400   14.1300  -14.7150 C.2   125  CYS125      0.2270
     59  O         17.7130   14.9120  -14.9320 O.2   125  CYS125     -0.2867
     60  CB        18.3620   12.6070  -12.7380 C.3   125  CYS125      0.0956
     61  SG        19.3030   11.8980  -11.3250 S.3   125  CYS125     -0.0801
     62  N         14.6710   11.1920  -19.3890 N.3   128  PHE128     -0.1241
     63  CA        14.4870    9.8580  -19.9900 C.3   128  PHE128      0.1605
     64  C         15.1820    9.8550  -21.3850 C.2   128  PHE128      0.2264
     65  O         16.2780    9.2590  -21.5920 O.2   128  PHE128     -0.2867
     66  CB        12.9560    9.6240  -20.1420 C.3   128  PHE128      0.0534
     67  CG        12.5510    8.1830  -20.3750 C.ar  128  PHE128     -0.0203
     68  CD1       12.5430    7.2460  -19.3020 C.ar  128  PHE128     -0.0042
     69  CD2       12.1550    7.7470  -21.6590 C.ar  128  PHE128     -0.0042
     70  CE1       12.1420    5.8750  -19.4950 C.ar  128  PHE128     -0.0003
     71  CE2       11.7510    6.3780  -21.8810 C.ar  128  PHE128     -0.0003
     72  CZ        11.7460    5.4400  -20.7880 C.ar  128  PHE128     -0.0000
     73  N         20.6510    2.3250  -21.2710 N.3   135  ALA135     -0.1231
     74  CA        20.9590    2.9900  -19.9880 C.3   135  ALA135      0.1694
     75  C         19.6340    3.4420  -19.3510 C.2   135  ALA135      0.2592
     76  O         19.3590    3.2160  -18.1800 O.2   135  ALA135     -0.2718
     77  CB        21.8670    4.2060  -20.2140 C.3   135  ALA135      0.0304
     78  N         18.8140    4.0670  -20.1720 N.am  136  ARG136     -0.1966
     79  CA        17.5270    4.5770  -19.7950 C.3   136  ARG136      0.1729
     80  C         16.6760    3.5260  -19.1330 C.2   136  ARG136      0.2616
     81  O         16.0060    3.8040  -18.1410 O.2   136  ARG136     -0.2715
     82  CB        16.8430    5.1120  -21.0740 C.3   136  ARG136      0.0348
     83  CG        15.3610    5.3600  -20.9310 C.3   136  ARG136      0.0492
     84  CD        14.7140    5.5550  -22.2640 C.3   136  ARG136      0.2205
     85  NE        15.5910    6.2170  -23.2170 N.pl3 136  ARG136     -0.0865
     86  CZ        15.4140    6.2490  -24.5370 C.cat 136  ARG136      0.5346
     87  NH1       14.3750    5.6690  -25.1270 N.pl3 136  ARG136      0.1354
     88  NH2       16.3180    6.8390  -25.2640 N.pl3 136  ARG136      0.1354
     89  N         16.6960    2.3230  -19.6870 N.am  137  GLU137     -0.1977
     90  CA        15.8760    1.2340  -19.1690 C.3   137  GLU137      0.1602
     91  C         16.7160    0.1930  -18.4380 C.2   137  GLU137      0.2287
     92  O         16.2500   -0.9000  -18.1070 O.2   137  GLU137     -0.2864
     93  CB        15.0780    0.6110  -20.3270 C.3   137  GLU137      0.0415
     94  CG        14.3470    1.6770  -21.1180 C.3   137  GLU137      0.1163
     95  CD        13.4600    1.1150  -22.2350 C.2   137  GLU137      0.3649
     96  OE1       13.6530   -0.0780  -22.5970 O.co2 137  GLU137     -0.2457
     97  OE2       12.5750    1.8750  -22.7480 O.co2 137  GLU137     -0.2457
     98  N         17.7190   -0.1240  -15.3550 N.3   139  PHE139     -0.1227
     99  CA        17.2160   -0.6390  -14.1070 C.3   139  PHE139      0.1736
    100  C         15.8410   -1.2870  -14.1930 C.2   139  PHE139      0.2595
    101  O         15.6820   -2.4760  -13.8820 O.2   139  PHE139     -0.2718
    102  CB        17.1750    0.4500  -13.0660 C.3   139  PHE139      0.0547
    103  CG        16.6410   -0.0180  -11.7610 C.ar  139  PHE139     -0.0202
    104  CD1       17.4950   -0.5500  -10.7900 C.ar  139  PHE139     -0.0042
    105  CD2       15.2680   -0.0040  -11.5160 C.ar  139  PHE139     -0.0042
    106  CE1       16.9980   -1.0620   -9.6080 C.ar  139  PHE139     -0.0003
    107  CE2       14.7700   -0.5120  -10.3440 C.ar  139  PHE139     -0.0003
    108  CZ        15.6470   -1.0480   -9.3810 C.ar  139  PHE139     -0.0000
    109  N         14.8320   -0.5480  -14.6160 N.am  140  TRP140     -0.1976
    110  CA        13.5290   -1.1860  -14.6470 C.3   140  TRP140      0.1640
    111  C         13.4500   -2.2910  -15.6820 C.2   140  TRP140      0.2290
    112  O         12.6590   -3.2300  -15.5460 O.2   140  TRP140     -0.2864
    113  CB        12.4180   -0.1550  -14.8520 C.3   140  TRP140      0.0576
    114  CG        12.1770    0.6170  -13.6230 C.ar  140  TRP140      0.0006
    115  CD1       12.5750    1.9030  -13.3700 C.ar  140  TRP140      0.0946
    116  CD2       11.6530    0.1170  -12.3900 C.ar  140  TRP140      0.0152
    117  NE1       12.3580    2.2260  -12.0610 N.ar  140  TRP140     -0.2442
    118  CE2       11.7960    1.1520  -11.4240 C.ar  140  TRP140      0.0810
    119  CE3       11.0910   -1.1050  -11.9980 C.ar  140  TRP140      0.0012
    120  CZ2       11.4030    0.9980  -10.0630 C.ar  140  TRP140      0.0191
    121  CZ3       10.6970   -1.2700  -10.6480 C.ar  140  TRP140      0.0001
    122  CH2       10.8640   -0.2120   -9.6940 C.ar  140  TRP140      0.0015
@<TRIPOS>BOND
     1    88    86    1
     2    87    86    1
     3    86    85    2
     4    85    84    1
     5    97    95   ar
     6    96    95   ar
     7    84    83    1
     8    95    94    1
     9    71    69   ar
    10    71    72   ar
    11    69    67   ar
    12    65    64    2
    13    64    63    1
    14    73    74    1
    15    94    93    1
    16    82    83    1
    17    82    79    1
    18    72    70   ar
    19    67    66    1
    20    67    68   ar
    21    93    90    1
    22    77    74    1
    23    78    79    1
    24    78    75   am
    25    66    63    1
    26    63    62    1
    27    74    75    1
    28    79    80    1
    29    89    90    1
    30    89    80   am
    31    70    68   ar
    32    75    76    2
    33    90    91    1
    34    80    81    2
    35    91    92    2
    36   111   112    2
    37   111   110    1
    38    98    99    1
    39    59    58    2
    40   113   110    1
    41   113   114    1
    42    58    57    1
    43   110   109    1
    44   109   100   am
    45     1     2    1
    46   100    99    1
    47   100   101    2
    48    99   102    1
    49     7     5    1
    50     5     2    1
    51     5     6    1
    52   114   115   ar
    53   114   116   ar
    54     8     6    1
    55   115   117   ar
    56     9    10    1
    57    57    60    1
    58    57    56    1
    59     2     3    1
    60   102   103    1
    61    16    18   ar
    62    16    14   ar
    63    18    19   ar
    64    60    61    1
    65    54    55    1
    66    54    51    1
    67   116   119   ar
    68   116   118   ar
    69     4     3    2
    70    10    11    1
    71    10    13    1
    72   117   118   ar
    73   119   121   ar
    74    55    61    1
    75    11    12    2
    76    13    14    1
    77    14    15   ar
    78    19    20    1
    79    19    17   ar
    80   103   105   ar
    81   103   104   ar
    82   105   107   ar
    83   118   120   ar
    84    51    52    1
    85    51    50    1
    86    39    38    2
    87    52    53    2
    88   104   106   ar
    89    15    17   ar
    90   121   122   ar
    91    34    33    1
    92   107   108   ar
    93    38    50   am
    94    38    37    1
    95   120   122   ar
    96    44    45   ar
    97    44    42   ar
    98    47    45   ar
    99    47    49   ar
   100    35    33    1
   101    45    43   ar
   102   106   108   ar
   103    49    48   ar
   104    42    41   ar
   105    36    37    1
   106    36    31   am
   107    33    30    1
   108    24    23    2
   109    37    40    1
   110    30    31    1
   111    30    29    1
   112    43    41   ar
   113    43    46   ar
   114    41    40    1
   115    48    46   ar
   116    31    32    2
   117    23    29   am
   118    23    22    1
   119    21    22    1
   120    22    25    1
   121    25    26    1
   122    26    28    1
   123    26    27    1
