@<TRIPOS>MOLECULE
tmp/1r15B00.pdb
 140 140 0 0 0
SMALL
GASTEIGER

@<TRIPOS>ATOM
      1  N          1.7930  -11.3920  -11.9920 N.3    75  MET75      -0.1230
      2  CA         1.0180  -10.5830  -12.9080 C.3    75  MET75       0.1702
      3  C          1.8770   -9.5500  -13.5930 C.2    75  MET75       0.2592
      4  O          2.7650   -8.9740  -12.9720 O.2    75  MET75      -0.2718
      5  CB        -0.0980   -9.8370  -12.1980 C.3    75  MET75       0.0401
      6  CG        -0.7350   -8.8180  -13.1350 C.3    75  MET75       0.0596
      7  SD        -2.0040   -7.8200  -12.3830 S.3    75  MET75      -0.1393
      8  CE        -3.4770   -8.7930  -12.8170 C.3    75  MET75       0.0692
      9  N          1.5850   -9.3130  -14.8710 N.am   76  PHE76      -0.1962
     10  CA         2.2710   -8.3320  -15.6830 C.3    76  PHE76       0.1771
     11  C          1.1860   -7.3820  -16.1850 C.2    76  PHE76       0.2620
     12  O          0.0180   -7.7530  -16.3260 O.2    76  PHE76      -0.2715
     13  CB         2.9270   -9.0060  -16.8790 C.3    76  PHE76       0.0574
     14  CG         3.9700  -10.0210  -16.5250 C.ar   76  PHE76      -0.0200
     15  CD1        5.2290   -9.6300  -16.0890 C.ar   76  PHE76      -0.0042
     16  CD2        3.7030  -11.3720  -16.6470 C.ar   76  PHE76      -0.0042
     17  CE1        6.2120  -10.5900  -15.7840 C.ar   76  PHE76      -0.0003
     18  CE2        4.6710  -12.3370  -16.3410 C.ar   76  PHE76      -0.0003
     19  CZ         5.9210  -11.9530  -15.9130 C.ar   76  PHE76      -0.0000
     20  N          1.5560   -6.1550  -16.4890 N.am   77  TRP77      -0.1960
     21  CA         0.5610   -5.2210  -16.9600 C.3    77  TRP77       0.1771
     22  C          1.1510   -4.2170  -17.9390 C.2    77  TRP77       0.2620
     23  O          2.3600   -4.0420  -18.0140 O.2    77  TRP77      -0.2715
     24  CB        -0.0210   -4.4770  -15.7720 C.3    77  TRP77       0.0590
     25  CG         1.0480   -3.9140  -14.9100 C.ar   77  TRP77       0.0006
     26  CD1        1.7180   -4.5590  -13.9150 C.ar   77  TRP77       0.0946
     27  CD2        1.6330   -2.6100  -15.0150 C.ar   77  TRP77       0.0152
     28  NE1        2.6940   -3.7420  -13.3900 N.ar   77  TRP77      -0.2442
     29  CE2        2.6640   -2.5380  -14.0450 C.ar   77  TRP77       0.0810
     30  CE3        1.3890   -1.4980  -15.8320 C.ar   77  TRP77       0.0012
     31  CZ2        3.4570   -1.3910  -13.8720 C.ar   77  TRP77       0.0191
     32  CZ3        2.1700   -0.3620  -15.6690 C.ar   77  TRP77       0.0001
     33  CH2        3.1960   -0.3150  -14.6970 C.ar   77  TRP77       0.0015
     34  N          0.2860   -3.5590  -18.6960 N.am   78  SER78      -0.1936
     35  CA         0.7170   -2.5440  -19.6290 C.3    78  SER78       0.2055
     36  C         -0.2640   -1.4080  -19.6550 C.2    78  SER78       0.2643
     37  O         -1.4460   -1.6110  -19.8940 O.2    78  SER78      -0.2714
     38  CB         0.8640   -3.1160  -21.0190 C.3    78  SER78       0.2130
     39  OG         2.0740   -3.8420  -21.1080 O.3    78  SER78      -0.2179
     40  N          0.2350   -0.2110  -19.3750 N.am   79  GLY79      -0.1954
     41  CA        -0.6040    0.9660  -19.4240 C.3    79  GLY79       0.1869
     42  C         -1.8700    0.9480  -18.5970 C.2    79  GLY79       0.2309
     43  O         -2.8550    1.5810  -18.9730 O.2    79  GLY79      -0.2863
     44  N          5.4830   -6.6430  -10.0580 N.3    97  LEU97      -0.1231
     45  CA         6.8660   -6.2600   -9.8560 C.3    97  LEU97       0.1693
     46  C          6.9820   -5.3160   -8.6490 C.2    97  LEU97       0.2591
     47  O          7.8450   -5.4960   -7.7970 O.2    97  LEU97      -0.2718
     48  CB         7.4150   -5.5600  -11.1030 C.3    97  LEU97       0.0284
     49  CG         8.9000   -5.1780  -10.9890 C.3    97  LEU97       0.0019
     50  CD1        9.7010   -6.4550  -10.7560 C.3    97  LEU97       0.0001
     51  CD2        9.3970   -4.4370  -12.2530 C.3    97  LEU97       0.0001
     52  N          6.1310   -4.3000   -8.5640 N.am   98  GLU98      -0.1979
     53  CA         6.1670   -3.3500   -7.4450 C.3    98  GLU98       0.1602
     54  C          6.0160   -4.0330   -6.0480 C.2    98  GLU98       0.2287
     55  O          6.3330   -3.4270   -5.0080 O.2    98  GLU98      -0.2864
     56  CB         5.0490   -2.3190   -7.6300 C.3    98  GLU98       0.0415
     57  CG         5.0440   -1.4700   -8.9680 C.3    98  GLU98       0.1163
     58  CD         5.2800   -2.2710  -10.2760 C.2    98  GLU98       0.3649
     59  OE1        4.5770   -3.2800  -10.5390 O.co2  98  GLU98      -0.2457
     60  OE2        6.1740   -1.8740  -11.0630 O.co2  98  GLU98      -0.2457
     61  N         14.8320   -0.5480  -14.6160 N.3   140  TRP140     -0.1241
     62  CA        13.5290   -1.1860  -14.6470 C.3   140  TRP140      0.1605
     63  C         13.4500   -2.2910  -15.6820 C.2   140  TRP140      0.2264
     64  O         12.6590   -3.2300  -15.5460 O.2   140  TRP140     -0.2867
     65  CB        12.4180   -0.1550  -14.8520 C.3   140  TRP140      0.0550
     66  CG        12.1770    0.6170  -13.6230 C.ar  140  TRP140      0.0003
     67  CD1       12.5750    1.9030  -13.3700 C.ar  140  TRP140      0.0946
     68  CD2       11.6530    0.1170  -12.3900 C.ar  140  TRP140      0.0152
     69  NE1       12.3580    2.2260  -12.0610 N.ar  140  TRP140     -0.2442
     70  CE2       11.7960    1.1520  -11.4240 C.ar  140  TRP140      0.0810
     71  CE3       11.0910   -1.1050  -11.9980 C.ar  140  TRP140      0.0012
     72  CZ2       11.4030    0.9980  -10.0630 C.ar  140  TRP140      0.0191
     73  CZ3       10.6970   -1.2700  -10.6480 C.ar  140  TRP140      0.0001
     74  CH2       10.8640   -0.2120   -9.6940 C.ar  140  TRP140      0.0015
     75  N         12.4250   -5.9100  -14.6550 N.3   144  SER144     -0.1217
     76  CA        11.3720   -6.6290  -15.3300 C.3   144  SER144      0.1889
     77  C         11.8620   -7.9790  -15.8290 C.2   144  SER144      0.2288
     78  O         11.1570   -8.9700  -15.7060 O.2   144  SER144     -0.2866
     79  CB        10.8200   -5.7970  -16.4930 C.3   144  SER144      0.2089
     80  OG        10.0240   -4.7340  -16.0140 O.3   144  SER144     -0.2183
     81  N         12.4190  -10.3550  -12.9050 N.3   147  TYR147     -0.1241
     82  CA        11.1150  -10.7070  -12.3920 C.3   147  TYR147      0.1605
     83  C         10.4750  -11.7780  -13.2560 C.2   147  TYR147      0.2264
     84  O         10.1480  -12.8620  -12.7950 O.2   147  TYR147     -0.2867
     85  CB        10.2550   -9.4700  -12.3920 C.3   147  TYR147      0.0534
     86  CG         8.8100   -9.6600  -12.0120 C.ar  147  TYR147     -0.0201
     87  CD1        8.4360  -10.0130  -10.7270 C.ar  147  TYR147     -0.0009
     88  CD2        7.8020   -9.3630  -12.9220 C.ar  147  TYR147     -0.0009
     89  CE1        7.0920  -10.0500  -10.3620 C.ar  147  TYR147      0.0417
     90  CE2        6.4640   -9.3980  -12.5730 C.ar  147  TYR147      0.0417
     91  CZ         6.1070   -9.7350  -11.2980 C.ar  147  TYR147      0.1957
     92  OH         4.7640   -9.7350  -10.9400 O.3   147  TYR147     -0.2866
     93  N          2.3400   -4.9660  -27.4950 N.3   170  ARG170     -0.1245
     94  CA         3.3210   -4.3300  -28.3650 C.3   170  ARG170      0.1563
     95  C          4.6480   -5.0040  -28.1550 C.2   170  ARG170      0.2260
     96  O          5.0710   -5.1740  -27.0250 O.2   170  ARG170     -0.2867
     97  CB         3.5030   -2.8660  -28.0040 C.3   170  ARG170      0.0307
     98  CG         2.2990   -2.0210  -28.1930 C.3   170  ARG170      0.0489
     99  CD         2.6520   -0.5990  -27.8640 C.3   170  ARG170      0.2205
    100  NE         2.9500   -0.4450  -26.4490 N.pl3 170  ARG170     -0.0865
    101  CZ         4.0130    0.1920  -25.9900 C.cat 170  ARG170      0.5346
    102  NH1        4.8790    0.7090  -26.8400 N.pl3 170  ARG170      0.1354
    103  NH2        4.1910    0.3510  -24.6820 N.pl3 170  ARG170      0.1354
    104  N          6.8830   -2.8860  -25.5740 N.3   173  SER173     -0.1202
    105  CA         6.4000   -2.3430  -24.3300 C.3   173  SER173      0.2020
    106  C          7.4050   -3.0830  -23.4390 C.2   173  SER173      0.2619
    107  O          8.0720   -4.0190  -23.9110 O.2   173  SER173     -0.2717
    108  CB         4.9880   -2.8550  -24.0540 C.3   173  SER173      0.2103
    109  OG         4.9420   -4.2810  -24.1100 O.3   173  SER173     -0.2182
    110  N          7.5550   -2.6730  -22.1890 N.am  174  PHE174     -0.1961
    111  CA         8.4600   -3.3930  -21.3210 C.3   174  PHE174      0.1771
    112  C          8.0830   -4.8690  -21.2520 C.2   174  PHE174      0.2619
    113  O          8.9520   -5.7220  -21.0680 O.2   174  PHE174     -0.2715
    114  CB         8.4330   -2.8240  -19.9210 C.3   174  PHE174      0.0574
    115  CG         9.4640   -1.7920  -19.6890 C.ar  174  PHE174     -0.0200
    116  CD1        9.5930   -0.7380  -20.5910 C.ar  174  PHE174     -0.0042
    117  CD2       10.3070   -1.8660  -18.5780 C.ar  174  PHE174     -0.0042
    118  CE1       10.5580    0.2520  -20.3990 C.ar  174  PHE174     -0.0003
    119  CE2       11.2780   -0.8900  -18.3560 C.ar  174  PHE174     -0.0003
    120  CZ        11.4160    0.1850  -19.2680 C.ar  174  PHE174     -0.0000
    121  N          6.7820   -5.1490  -21.3860 N.am  175  PHE175     -0.1974
    122  CA         6.3200   -6.5130  -21.3670 C.3   175  PHE175      0.1639
    123  C          6.8740   -7.2390  -22.5860 C.2   175  PHE175      0.2290
    124  O          7.4850   -8.2890  -22.4800 O.2   175  PHE175     -0.2864
    125  CB         4.8080   -6.5610  -21.4250 C.3   175  PHE175      0.0560
    126  CG         4.2610   -7.9410  -21.5590 C.ar  175  PHE175     -0.0200
    127  CD1        4.2610   -8.8060  -20.4880 C.ar  175  PHE175     -0.0042
    128  CD2        3.7680   -8.3830  -22.7760 C.ar  175  PHE175     -0.0042
    129  CE1        3.7740  -10.1030  -20.6160 C.ar  175  PHE175     -0.0003
    130  CE2        3.2770   -9.6790  -22.9250 C.ar  175  PHE175     -0.0003
    131  CZ         3.2800  -10.5420  -21.8300 C.ar  175  PHE175     -0.0000
    132  N          9.5320   -8.8220  -20.3930 N.3   179  GLU179     -0.1245
    133  CA         8.7750   -9.8000  -19.6480 C.3   179  GLU179      0.1567
    134  C          8.4240  -11.0620  -20.5000 C.2   179  GLU179      0.2260
    135  O          8.9720  -12.1290  -20.2620 O.2   179  GLU179     -0.2867
    136  CB         7.5470   -9.1080  -18.9910 C.3   179  GLU179      0.0388
    137  CG         7.9130   -8.0520  -17.8170 C.3   179  GLU179      0.1160
    138  CD         6.8140   -6.9730  -17.5180 C.2   179  GLU179      0.3649
    139  OE1        5.9460   -6.7600  -18.3970 O.co2 179  GLU179     -0.2457
    140  OE2        6.8310   -6.2030  -16.2450 O.co2 179  GLU179     -0.2457
@<TRIPOS>BOND
     1    94    95    1
     2    94    97    1
     3    94    93    1
     4    98    97    1
     5    98    99    1
     6    95    96    2
     7    99   100    1
     8   102   101    1
     9   100   101    2
    10   101   103    1
    11   104   105    1
    12   105   108    1
    13   105   106    1
    14   109   108    1
    15   107   106    2
    16   106   110   am
    17   130   128   ar
    18   130   131   ar
    19   128   126   ar
    20   123   124    2
    21   123   122    1
    22   110   111    1
    23   131   129   ar
    24   126   125    1
    25   126   127   ar
    26   125   122    1
    27   121   122    1
    28   121   112   am
    29   111   112    1
    30   111   114    1
    31   112   113    2
    32    39    38    1
    33    38    35    1
    34   129   127   ar
    35   116   118   ar
    36   116   115   ar
    37   134   135    2
    38   134   133    1
    39   118   120   ar
    40   132   133    1
    41   114   115    1
    42    37    36    2
    43   115   117   ar
    44    36    35    1
    45    36    40   am
    46   133   136    1
    47    35    34    1
    48    41    40    1
    49    41    42    1
    50   120   119   ar
    51   136   137    1
    52    43    42    2
    53    34    22   am
    54   117   119   ar
    55   139   138   ar
    56    23    22    2
    57    22    21    1
    58   137   138    1
    59   138   140   ar
    60    21    20    1
    61    21    24    1
    62    13    14    1
    63    13    10    1
    64    16    14   ar
    65    16    18   ar
    66    14    15   ar
    67    79    80    1
    68    79    76    1
    69    20    11   am
    70    18    19   ar
    71    12    11    2
    72    11    10    1
    73    15    17   ar
    74    19    17   ar
    75    30    32   ar
    76    30    27   ar
    77    77    78    2
    78    77    76    1
    79    24    25    1
    80    10     9    1
    81    63    64    2
    82    63    62    1
    83    32    33   ar
    84    76    75    1
    85    27    25   ar
    86    27    29   ar
    87    25    26   ar
    88     9     3   am
    89    65    62    1
    90    65    66    1
    91    33    31   ar
    92    62    61    1
    93    29    31   ar
    94    29    28   ar
    95    26    28   ar
    96    66    67   ar
    97    66    68   ar
    98     3     4    2
    99     3     2    1
   100    67    69   ar
   101    83    84    2
   102    83    82    1
   103     6     7    1
   104     6     5    1
   105    88    90   ar
   106    88    86   ar
   107     2     5    1
   108     2     1    1
   109    81    82    1
   110     8     7    1
   111    90    91   ar
   112    85    82    1
   113    85    86    1
   114    68    71   ar
   115    68    70   ar
   116    51    49    1
   117    69    70   ar
   118    86    87   ar
   119    71    73   ar
   120    70    72   ar
   121    91    92    1
   122    91    89   ar
   123    48    49    1
   124    48    45    1
   125    60    58   ar
   126    49    50    1
   127    87    89   ar
   128    73    74   ar
   129    59    58   ar
   130    58    57    1
   131    72    74   ar
   132    44    45    1
   133    45    46    1
   134    57    56    1
   135    46    52   am
   136    46    47    2
   137    52    53    1
   138    56    53    1
   139    53    54    1
   140    54    55    2
