@<TRIPOS>MOLECULE
tmp/1r16B01.pdb
 98 98 0 0 0
SMALL
GASTEIGER

@<TRIPOS>ATOM
      1  N         10.7670   -5.2160    5.9300 N.3    77  TRP77      -0.1241
      2  CA        11.1320   -6.5920    6.2540 C.3    77  TRP77       0.1605
      3  C         10.0540   -7.3120    7.0670 C.2    77  TRP77       0.2264
      4  O          9.2880   -6.6650    7.7850 O.2    77  TRP77      -0.2867
      5  CB        12.4570   -6.6130    7.0400 C.3    77  TRP77       0.0550
      6  CG        12.4310   -5.9000    8.3490 C.ar   77  TRP77       0.0003
      7  CD1       12.7010   -4.5510    8.5780 C.ar   77  TRP77       0.0946
      8  CD2       12.0370   -6.4440    9.6260 C.ar   77  TRP77       0.0152
      9  NE1       12.4870   -4.2490    9.9040 N.ar   77  TRP77      -0.2442
     10  CE2       12.0770   -5.3780   10.5660 C.ar   77  TRP77       0.0810
     11  CE3       11.6500   -7.7200   10.0630 C.ar   77  TRP77       0.0012
     12  CZ2       11.7380   -5.5570   11.9210 C.ar   77  TRP77       0.0191
     13  CZ3       11.3130   -7.8970   11.4180 C.ar   77  TRP77       0.0001
     14  CH2       11.3590   -6.8210   12.3250 C.ar   77  TRP77       0.0015
     15  N         14.4290   -9.9560   11.2100 N.3    81  TYR81      -0.1241
     16  CA        15.0420   -8.7790   11.8210 C.3    81  TYR81       0.1605
     17  C         16.5640   -8.6810   11.7100 C.2    81  TYR81       0.2264
     18  O         17.0990   -7.7120   11.1410 O.2    81  TYR81      -0.2867
     19  CB        14.6120   -8.6330   13.3060 C.3    81  TYR81       0.0534
     20  CG        15.1080   -7.3370   13.9060 C.ar   81  TYR81      -0.0201
     21  CD1       16.4360   -7.1800   14.2570 C.ar   81  TYR81      -0.0009
     22  CD2       14.2500   -6.2440   14.0560 C.ar   81  TYR81      -0.0009
     23  CE1       16.9240   -5.9530   14.7510 C.ar   81  TYR81       0.0417
     24  CE2       14.7110   -5.0200   14.5320 C.ar   81  TYR81       0.0417
     25  CZ        16.0500   -4.8780   14.8770 C.ar   81  TYR81       0.1957
     26  OH        16.5270   -3.6600   15.3170 O.3    81  TYR81      -0.2866
     27  N         13.1850    0.9990    9.0620 N.3    97  LEU97      -0.1231
     28  CA        12.4290    1.8640    9.9650 C.3    97  LEU97       0.1693
     29  C         13.1950    2.2150   11.2490 C.2    97  LEU97       0.2591
     30  O         13.0830    3.3260   11.8030 O.2    97  LEU97      -0.2718
     31  CB        11.0760    1.1960   10.3250 C.3    97  LEU97       0.0284
     32  CG        10.2740    1.9290   11.4130 C.3    97  LEU97       0.0019
     33  CD1        9.7960    3.2820   10.8320 C.3    97  LEU97       0.0001
     34  CD2        9.1080    1.0460   11.9080 C.3    97  LEU97       0.0001
     35  N         14.0350    1.2750   11.7070 N.am   98  GLU98      -0.1979
     36  CA        14.7580    1.4750   12.9530 C.3    98  GLU98       0.1602
     37  C         15.9180    2.4880   12.8230 C.2    98  GLU98       0.2287
     38  O         16.5070    2.8650   13.8120 O.2    98  GLU98      -0.2864
     39  CB        15.2120    0.0790   13.4820 C.3    98  GLU98       0.0415
     40  CG        14.0170   -0.9340   13.9050 C.3    98  GLU98       0.1163
     41  CD        13.0910   -1.4290   12.7590 C.2    98  GLU98       0.3649
     42  OE1       13.5480   -1.6690   11.6080 O.co2  98  GLU98      -0.2457
     43  OE2       11.8730   -1.6100   13.0000 O.co2  98  GLU98      -0.2457
     44  N         12.4180    4.6350   19.9220 N.3   106  LEU106     -0.1231
     45  CA        11.6590    3.6670   20.6790 C.3   106  LEU106      0.1693
     46  C         12.0200    2.1880   20.4540 C.2   106  LEU106      0.2592
     47  O         11.4520    1.3560   21.0990 O.2   106  LEU106     -0.2718
     48  CB        10.1200    3.8910   20.4590 C.3   106  LEU106      0.0284
     49  CG         9.4080    5.1340   21.0760 C.3   106  LEU106      0.0019
     50  CD1        9.7670    5.2590   22.5910 C.3   106  LEU106      0.0001
     51  CD2        9.8130    6.4230   20.3240 C.3   106  LEU106      0.0001
     52  N         12.9600    1.8600   19.5610 N.am  107  ASN107     -0.1960
     53  CA        13.3140    0.4720   19.3000 C.3   107  ASN107      0.1819
     54  C         13.6420   -0.2380   20.6370 C.2   107  ASN107      0.2622
     55  O         14.4730    0.2560   21.4590 O.2   107  ASN107     -0.2715
     56  CB        14.5290    0.3920   18.3440 C.3   107  ASN107      0.1195
     57  CG        14.7310   -1.0060   17.7350 C.2   107  ASN107      0.2630
     58  OD1       15.8430   -1.3600   17.3350 O.2   107  ASN107     -0.2716
     59  ND2       13.6700   -1.7770   17.6360 N.am  107  ASN107     -0.0877
     60  N         12.9490   -1.3530   20.8630 N.am  108  SER108     -0.1936
     61  CA        13.0920   -2.2150   22.0620 C.3   108  SER108      0.2055
     62  C         12.5980   -1.6270   23.3430 C.2   108  SER108      0.2642
     63  O         12.8790   -2.1910   24.3980 O.2   108  SER108     -0.2714
     64  CB        14.5550   -2.5820   22.3560 C.3   108  SER108      0.2130
     65  OG        15.2520   -2.8890   21.1760 O.3   108  SER108     -0.2179
     66  N         11.9100   -0.4930   23.3260 N.am  109  LEU109     -0.1977
     67  CA        11.4590    0.0020   24.6290 C.3   109  LEU109      0.1596
     68  C         10.0640   -0.5640   24.9110 C.2   109  LEU109      0.2287
     69  O          9.3850   -1.0080   23.9840 O.2   109  LEU109     -0.2864
     70  CB        11.4750    1.5520   24.6720 C.3   109  LEU109      0.0297
     71  CG        12.8560    2.2030   24.3410 C.3   109  LEU109      0.0022
     72  CD1       12.8830    3.7180   24.7070 C.3   109  LEU109      0.0001
     73  CD2       13.9710    1.4660   25.0710 C.3   109  LEU109      0.0001
     74  N          3.5990    1.0050   16.4560 N.3   140  TRP140     -0.1241
     75  CA         4.3780    0.5050   15.3300 C.3   140  TRP140      0.1605
     76  C          3.5690    0.4670   14.0170 C.2   140  TRP140      0.2264
     77  O          4.1440    0.5660   12.9240 O.2   140  TRP140     -0.2867
     78  CB         5.0850   -0.8700   15.6930 C.3   140  TRP140      0.0550
     79  CG         6.2000   -0.6990   16.7450 C.ar  140  TRP140      0.0003
     80  CD1        6.1380   -1.0480   18.0850 C.ar  140  TRP140      0.0946
     81  CD2        7.4560    0.0110   16.5760 C.ar  140  TRP140      0.0152
     82  NE1        7.2600   -0.5830   18.7380 N.ar  140  TRP140     -0.2442
     83  CE2        8.0820    0.0690   17.8470 C.ar  140  TRP140      0.0810
     84  CE3        8.1020    0.6010   15.4730 C.ar  140  TRP140      0.0012
     85  CZ2        9.3210    0.6980   18.0530 C.ar  140  TRP140      0.0191
     86  CZ3        9.3500    1.2310   15.6670 C.ar  140  TRP140      0.0001
     87  CH2        9.9460    1.2730   16.9580 C.ar  140  TRP140      0.0015
     88  N          2.4760   -6.4550    9.3600 N.3   174  PHE174     -0.1241
     89  CA         2.5880   -5.0030    9.3150 C.3   174  PHE174      0.1605
     90  C          2.8360   -4.5320    7.8810 C.2   174  PHE174      0.2264
     91  O          2.2950   -3.5110    7.4730 O.2   174  PHE174     -0.2867
     92  CB         3.6610   -4.4840   10.3050 C.3   174  PHE174      0.0534
     93  CG         3.1580   -4.3580   11.7400 C.ar  174  PHE174     -0.0203
     94  CD1        2.5100   -5.4200   12.3630 C.ar  174  PHE174     -0.0042
     95  CD2        3.3310   -3.1830   12.4530 C.ar  174  PHE174     -0.0042
     96  CE1        2.0380   -5.3000   13.6900 C.ar  174  PHE174     -0.0003
     97  CE2        2.8740   -3.0520   13.7550 C.ar  174  PHE174     -0.0003
     98  CZ         2.2270   -4.1010   14.3810 C.ar  174  PHE174     -0.0000
@<TRIPOS>BOND
     1     1     2    1
     2     2     5    1
     3     2     3    1
     4     5     6    1
     5     3     4    2
     6    91    90    2
     7    90    89    1
     8     6     7   ar
     9     6     8   ar
    10     7     9   ar
    11    27    28    1
    12    89    88    1
    13    89    92    1
    14     8    11   ar
    15     8    10   ar
    16     9    10   ar
    17    28    31    1
    18    28    29    1
    19    11    13   ar
    20    92    93    1
    21    31    32    1
    22    10    12   ar
    23    33    32    1
    24    18    17    2
    25    15    16    1
    26    29    35   am
    27    29    30    2
    28    32    34    1
    29    13    14   ar
    30    42    41   ar
    31    35    36    1
    32    17    16    1
    33    93    94   ar
    34    93    95   ar
    35    16    19    1
    36    12    14   ar
    37    94    96   ar
    38    95    97   ar
    39    41    43   ar
    40    41    40    1
    41    37    36    1
    42    37    38    2
    43    77    76    2
    44    36    39    1
    45    19    20    1
    46    39    40    1
    47    96    98   ar
    48    97    98   ar
    49    20    22   ar
    50    20    21   ar
    51    76    75    1
    52    22    24   ar
    53    21    23   ar
    54    24    25   ar
    55    23    25   ar
    56    25    26    1
    57    75    78    1
    58    75    74    1
    59    84    86   ar
    60    84    81   ar
    61    86    87   ar
    62    78    79    1
    63    81    79   ar
    64    81    83   ar
    65    79    80   ar
    66    87    85   ar
    67    58    57    2
    68    59    57   am
    69    57    56    1
    70    83    85   ar
    71    83    82   ar
    72    80    82   ar
    73    56    53    1
    74    53    52    1
    75    53    54    1
    76    52    46   am
    77    44    45    1
    78    51    49    1
    79    46    45    1
    80    46    47    2
    81    48    45    1
    82    48    49    1
    83    54    60   am
    84    54    55    2
    85    60    61    1
    86    49    50    1
    87    65    64    1
    88    61    64    1
    89    61    62    1
    90    66    62   am
    91    66    67    1
    92    62    63    2
    93    69    68    2
    94    71    70    1
    95    71    72    1
    96    71    73    1
    97    67    70    1
    98    67    68    1
