@<TRIPOS>MOLECULE
tmp/1r18A00.pdb
 207 202 0 0 0
SMALL
GASTEIGER

@<TRIPOS>ATOM
      1  N         18.3590  -11.7040   21.5550 N.3    55  ILE55      -0.1245
      2  CA        17.0140  -11.6190   20.9920 C.3    55  ILE55       0.1561
      3  C         16.7600  -12.7380   19.9840 C.2    55  ILE55       0.2260
      4  O         15.6680  -12.8480   19.4300 O.2    55  ILE55      -0.2867
      5  CB        16.7800  -10.2590   20.2870 C.3    55  ILE55       0.0252
      6  CG1       17.8200  -10.0540   19.1790 C.3    55  ILE55       0.0019
      7  CG2       16.8410   -9.1320   21.3030 C.3    55  ILE55       0.0019
      8  CD1       17.6500   -8.7530   18.4080 C.3    55  ILE55       0.0001
      9  N         22.0960  -12.9980   17.8010 N.3    59  VAL59      -0.1231
     10  CA        22.3730  -11.5720   17.9390 C.3    59  VAL59       0.1692
     11  C         21.7780  -11.0070   19.2230 C.2    59  VAL59       0.2593
     12  O         21.0090  -11.6780   19.9100 O.2    59  VAL59      -0.2718
     13  CB        21.8140  -10.7720   16.7430 C.3    59  VAL59       0.0266
     14  CG1       22.4340  -11.2740   15.4500 C.3    59  VAL59       0.0020
     15  CG2       20.3040  -10.8960   16.6940 C.3    59  VAL59       0.0020
     16  N         22.1280   -9.7630   19.5320 N.am   60  THR60      -0.1939
     17  CA        21.6450   -9.1160   20.7440 C.3    60  THR60       0.2028
     18  C         21.1770   -7.6880   20.5070 C.2    60  THR60       0.2642
     19  O         21.5960   -7.0330   19.5500 O.2    60  THR60      -0.2714
     20  CB        22.7530   -9.0560   21.8090 C.3    60  THR60       0.1808
     21  OG1       23.8660   -8.3100   21.2930 O.3    60  THR60      -0.2208
     22  CG2       23.2190  -10.4580   22.1780 C.3    60  THR60       0.0379
     23  N         20.2910   -7.2150   21.3770 N.am   61  ILE61      -0.1963
     24  CA        19.8190   -5.8440   21.2970 C.3    61  ILE61       0.1727
     25  C         20.9130   -5.0870   22.0510 C.2    61  ILE61       0.2616
     26  O         21.2500   -5.4390   23.1800 O.2    61  ILE61      -0.2715
     27  CB        18.4480   -5.6620   22.0050 C.3    61  ILE61       0.0290
     28  CG1       18.0910   -4.1710   22.0760 C.3    61  ILE61       0.0022
     29  CG2       18.4810   -6.3010   23.3800 C.3    61  ILE61       0.0023
     30  CD1       16.7880   -3.8790   22.7770 C.3    61  ILE61       0.0001
     31  N         21.4770   -4.0680   21.4150 N.am   62  SER62      -0.1950
     32  CA        22.5610   -3.2840   22.0010 C.3    62  SER62       0.1924
     33  C         22.3200   -2.7880   23.4260 C.2    62  SER62       0.2314
     34  O         21.1800   -2.6610   23.8720 O.2    62  SER62      -0.2863
     35  CB        22.8690   -2.0850   21.1030 C.3    62  SER62       0.2116
     36  OG        23.0730   -2.4930   19.7600 O.3    62  SER62      -0.2180
     37  N         23.1710    2.6840   22.2200 N.3    67  HIS67      -0.1241
     38  CA        22.0650    3.2810   21.4780 C.3    67  HIS67       0.1621
     39  C         22.1420    4.7970   21.6290 C.2    67  HIS67       0.2264
     40  O         21.8670    5.5440   20.6880 O.2    67  HIS67      -0.2867
     41  CB        20.7240    2.7840   22.0250 C.3    67  HIS67       0.0745
     42  CG        20.3350    1.4230   21.5410 C.ar   67  HIS67       0.0817
     43  ND1       19.5210    0.5800   22.2670 N.ar   67  HIS67      -0.2268
     44  CD2       20.6200    0.7680   20.3890 C.ar   67  HIS67       0.1154
     45  CE1       19.3220   -0.5340   21.5850 C.ar   67  HIS67       0.1986
     46  NE2       19.9780   -0.4450   20.4420 N.ar   67  HIS67      -0.2212
     47  N         18.3250    2.3290    8.8190 N.3    86  ASP86      -0.1225
     48  CA        18.8780    1.6140    9.9650 C.3    86  ASP86       0.1805
     49  C         19.1650    0.1820    9.5310 C.2    86  ASP86       0.2598
     50  O         18.2850   -0.6810    9.5560 O.2    86  ASP86      -0.2718
     51  CB        17.8990    1.6400   11.1470 C.3    86  ASP86       0.1424
     52  CG        18.4050    0.8450   12.3450 C.2    86  ASP86       0.3668
     53  OD1       19.6370    0.7050   12.4970 O.co2  86  ASP86      -0.2456
     54  OD2       17.5700    0.3720   13.1460 O.co2  86  ASP86      -0.2456
     55  N         20.4080   -0.0490    9.1170 N.am   87  VAL87      -0.1966
     56  CA        20.8650   -1.3530    8.6450 C.3    87  VAL87       0.1727
     57  C         21.0680   -2.3210    9.8060 C.2    87  VAL87       0.2617
     58  O         21.8500   -2.0570   10.7200 O.2    87  VAL87      -0.2715
     59  CB        22.1860   -1.2050    7.8620 C.3    87  VAL87       0.0290
     60  CG1       22.6390   -2.5530    7.3260 C.3    87  VAL87       0.0023
     61  CG2       21.9950   -0.2070    6.7270 C.3    87  VAL87       0.0023
     62  N         20.3690   -3.4500    9.7520 N.am   88  GLY88      -0.1940
     63  CA        20.4590   -4.4310   10.8180 C.3    88  GLY88       0.2014
     64  C         19.5130   -4.0010   11.9230 C.2    88  GLY88       0.2640
     65  O         19.9090   -3.8640   13.0770 O.2    88  GLY88      -0.2714
     66  N         18.2510   -3.7850   11.5670 N.am   89  SER89      -0.1935
     67  CA        17.2460   -3.3340   12.5250 C.3    89  SER89       0.2055
     68  C         16.9530   -4.2190   13.7360 C.2    89  SER89       0.2644
     69  O         16.4120   -3.7330   14.7290 O.2    89  SER89      -0.2714
     70  CB        15.9380   -3.0270   11.7880 C.3    89  SER89       0.2130
     71  OG        15.6240   -4.0370   10.8520 O.3    89  SER89      -0.2179
     72  N         17.2920   -5.5020   13.6460 N.am   90  GLY90      -0.1939
     73  CA        17.0720   -6.4340   14.7400 C.3    90  GLY90       0.2014
     74  C         15.7630   -6.3260   15.4970 C.2    90  GLY90       0.2640
     75  O         14.6790   -6.5910   14.9640 O.2    90  GLY90      -0.2714
     76  N         15.8840   -5.9390   16.7630 N.am   91  SER91      -0.1935
     77  CA        14.7420   -5.7900   17.6540 C.3    91  SER91       0.2055
     78  C         13.7990   -4.6660   17.2300 C.2    91  SER91       0.2644
     79  O         12.6120   -4.6900   17.5670 O.2    91  SER91      -0.2714
     80  CB        15.2260   -5.5210   19.0850 C.3    91  SER91       0.2130
     81  OG        15.6640   -4.1770   19.2580 O.3    91  SER91      -0.2179
     82  N         14.3310   -3.6820   16.5070 N.am   92  GLY92      -0.1939
     83  CA        13.5200   -2.5610   16.0650 C.3    92  GLY92       0.2014
     84  C         13.5600   -1.3780   17.0220 C.2    92  GLY92       0.2639
     85  O         12.9180   -0.3550   16.7800 O.2    92  GLY92      -0.2714
     86  N         14.3210   -1.5080   18.1050 N.am   93  TYR93      -0.1959
     87  CA        14.4210   -0.4450   19.1030 C.3    93  TYR93       0.1771
     88  C         14.9930    0.8730   18.5930 C.2    93  TYR93       0.2619
     89  O         14.3390    1.9120   18.6890 O.2    93  TYR93      -0.2715
     90  CB        15.2620   -0.8990   20.2970 C.3    93  TYR93       0.0574
     91  CG        15.3530    0.1480   21.3880 C.ar   93  TYR93      -0.0198
     92  CD1       14.3610    0.2550   22.3630 C.ar   93  TYR93      -0.0009
     93  CD2       16.4170    1.0510   21.4290 C.ar   93  TYR93      -0.0009
     94  CE1       14.4280    1.2350   23.3550 C.ar   93  TYR93       0.0417
     95  CE2       16.4910    2.0350   22.4140 C.ar   93  TYR93       0.0417
     96  CZ        15.4940    2.1190   23.3720 C.ar   93  TYR93       0.1957
     97  OH        15.5620    3.0880   24.3470 O.3    93  TYR93      -0.2866
     98  N         16.2160    0.8450   18.0700 N.am   94  LEU94      -0.1977
     99  CA        16.8310    2.0740   17.5880 C.3    94  LEU94       0.1596
    100  C         15.9650    2.7420   16.5350 C.2    94  LEU94       0.2287
    101  O         15.9250    3.9690   16.4370 O.2    94  LEU94      -0.2864
    102  CB        18.2230    1.8030   17.0100 C.3    94  LEU94       0.0297
    103  CG        19.0040    3.0880   16.7120 C.3    94  LEU94       0.0022
    104  CD1       19.0600    3.9390   17.9730 C.3    94  LEU94       0.0001
    105  CD2       20.4040    2.7600   16.2240 C.3    94  LEU94       0.0001
    106  N         16.1560   -2.1460    7.7330 N.3   116  ILE116     -0.1231
    107  CA        16.3460   -3.3260    6.9020 C.3   116  ILE116      0.1692
    108  C         17.0560   -4.4390    7.6800 C.2   116  ILE116      0.2592
    109  O         18.1440   -4.2480    8.2240 O.2   116  ILE116     -0.2718
    110  CB        17.1220   -2.9660    5.6050 C.3   116  ILE116      0.0266
    111  CG1       17.2850   -4.2110    4.7300 C.3   116  ILE116      0.0019
    112  CG2       18.4630   -2.3450    5.9470 C.3   116  ILE116      0.0020
    113  CD1       17.8020   -3.9160    3.3340 C.3   116  ILE116      0.0001
    114  N         16.4050   -5.5990    7.7300 N.am  117  GLU117     -0.1966
    115  CA        16.9000   -6.7730    8.4450 C.3   117  GLU117      0.1733
    116  C         16.8470   -7.9890    7.5160 C.2   117  GLU117      0.2616
    117  O         15.8690   -8.1660    6.7820 O.2   117  GLU117     -0.2715
    118  CB        16.0170   -7.0100    9.6770 C.3   117  GLU117      0.0429
    119  CG        16.2370   -8.3300   10.3870 C.3   117  GLU117      0.1163
    120  CD        17.6110   -8.4310   11.0070 C.2   117  GLU117      0.3649
    121  OE1       17.9500   -7.5640   11.8370 O.co2 117  GLU117     -0.2457
    122  OE2       18.3510   -9.3770   10.6640 O.co2 117  GLU117     -0.2457
    123  N         17.8800   -8.8310    7.5420 N.am  118  HIS118     -0.1959
    124  CA        17.8840   -9.9960    6.6590 C.3   118  HIS118      0.1787
    125  C         17.4090  -11.3130    7.2740 C.2   118  HIS118      0.2620
    126  O         17.2800  -12.3120    6.5660 O.2   118  HIS118     -0.2715
    127  CB        19.2640  -10.1910    6.0070 C.3   118  HIS118      0.0785
    128  CG        20.3420  -10.6280    6.9510 C.ar  118  HIS118      0.0821
    129  ND1       21.5560  -11.1100    6.5100 N.ar  118  HIS118     -0.2267
    130  CD2       20.4000  -10.6430    8.3040 C.ar  118  HIS118      0.1154
    131  CE1       22.3160  -11.4040    7.5500 C.ar  118  HIS118      0.1986
    132  NE2       21.6390  -11.1280    8.6500 N.ar  118  HIS118     -0.2212
    133  N         17.1500  -11.3230    8.5790 N.am  119  GLN119     -0.1977
    134  CA        16.6610  -12.5350    9.2290 C.3   119  GLN119      0.1601
    135  C         15.1430  -12.4360    9.3640 C.2   119  GLN119      0.2287
    136  O         14.6270  -11.6000   10.1050 O.2   119  GLN119     -0.2864
    137  CB        17.3110  -12.7220   10.6060 C.3   119  GLN119      0.0394
    138  CG        18.8030  -13.0450   10.5460 C.3   119  GLN119      0.0908
    139  CD        19.3330  -13.6280   11.8430 C.2   119  GLN119      0.2608
    140  OE1       18.8630  -14.6690   12.3080 O.2   119  GLN119     -0.2717
    141  NE2       20.3170  -12.9570   12.4380 N.am  119  GLN119     -0.0878
    142  N         13.4500  -12.2120   12.8280 N.3   122  LEU122     -0.1245
    143  CA        13.5760  -10.9190   13.4900 C.3   122  LEU122      0.1561
    144  C         12.6920   -9.8620   12.8390 C.2   122  LEU122      0.2260
    145  O         12.2480   -8.9180   13.5010 O.2   122  LEU122     -0.2867
    146  CB        15.0330  -10.4640   13.4840 C.3   122  LEU122      0.0270
    147  CG        15.9580  -11.3610   14.3090 C.3   122  LEU122      0.0019
    148  CD1       17.3630  -10.7730   14.3350 C.3   122  LEU122      0.0001
    149  CD2       15.4040  -11.4910   15.7200 C.3   122  LEU122      0.0001
    150  N         15.8830   -7.8290    3.6830 N.3   148  GLY148     -0.1210
    151  CA        16.9090   -7.7330    2.6620 C.3   148  GLY148      0.1956
    152  C         18.3200   -7.7100    3.2090 C.2   148  GLY148      0.2612
    153  O         18.5290   -7.7740    4.4200 O.2   148  GLY148     -0.2717
    154  N         19.2900   -7.6300    2.3050 N.am  149  ASP149     -0.1959
    155  CA        20.6960   -7.5720    2.6780 C.3   149  ASP149      0.1840
    156  C         21.0890   -6.0990    2.7330 C.2   149  ASP149      0.2623
    157  O         21.2810   -5.4600    1.7000 O.2   149  ASP149     -0.2715
    158  CB        21.5500   -8.3090    1.6440 C.3   149  ASP149      0.1450
    159  CG        23.0380   -8.1690    1.9090 C.2   149  ASP149      0.3671
    160  OD1       23.4090   -7.5630    2.9350 O.co2 149  ASP149     -0.2456
    161  OD2       23.8400   -8.6650    1.0920 O.co2 149  ASP149     -0.2456
    162  N         21.2070   -5.5710    3.9470 N.am  150  GLY150     -0.1940
    163  CA        21.5480   -4.1720    4.1350 C.3   150  GLY150      0.2014
    164  C         22.7970   -3.6520    3.4470 C.2   150  GLY150      0.2638
    165  O         22.9250   -2.4490    3.2310 O.2   150  GLY150     -0.2714
    166  N         23.7210   -4.5430    3.1070 N.am  151  ARG151     -0.1977
    167  CA        24.9560   -4.1410    2.4440 C.3   151  ARG151      0.1597
    168  C         24.7070   -3.3840    1.1390 C.2   151  ARG151      0.2287
    169  O         25.5880   -2.6750    0.6440 O.2   151  ARG151     -0.2864
    170  CB        25.8230   -5.3690    2.1670 C.3   151  ARG151      0.0334
    171  CG        26.3350   -6.0530    3.4220 C.3   151  ARG151      0.0492
    172  CD        27.3160   -7.1580    3.0770 C.3   151  ARG151      0.2205
    173  NE        26.6610   -8.4230    2.7570 N.pl3 151  ARG151     -0.0865
    174  CZ        27.0380   -9.2280    1.7680 C.cat 151  ARG151      0.5346
    175  NH1       28.0630   -8.8960    0.9930 N.pl3 151  ARG151      0.1354
    176  NH2       26.4050  -10.3760    1.5670 N.pl3 151  ARG151      0.1354
    177  N         22.6040    4.4210    9.6850 N.3   164  HIS164     -0.1241
    178  CA        23.2210    3.7700   10.8290 C.3   164  HIS164      0.1621
    179  C         23.3260    2.2790   10.5270 C.2   164  HIS164      0.2264
    180  O         22.3780    1.6710   10.0290 O.2   164  HIS164     -0.2867
    181  CB        22.3980    3.9990   12.0980 C.3   164  HIS164      0.0745
    182  CG        22.7770    3.0920   13.2260 C.ar  164  HIS164      0.0817
    183  ND1       22.2380    1.8330   13.3780 N.ar  164  HIS164     -0.2268
    184  CD2       23.6820    3.2370   14.2210 C.ar  164  HIS164      0.1154
    185  CE1       22.7950    1.2410   14.4190 C.ar  164  HIS164      0.1986
    186  NE2       23.6760    2.0710   14.9480 N.ar  164  HIS164     -0.2212
    187  N         24.2360   -1.4100   12.2380 N.3   166  GLY166     -0.1210
    188  CA        24.4600   -2.1420   13.4720 C.3   166  GLY166      0.1956
    189  C         25.3220   -3.3870   13.3730 C.2   166  GLY166      0.2611
    190  O         25.5980   -4.0270   14.3870 O.2   166  GLY166     -0.2717
    191  N         25.7410   -3.7390   12.1630 N.am  167  ALA167     -0.1979
    192  CA        26.5810   -4.9150   11.9630 C.3   167  ALA167      0.1597
    193  C         27.8950   -4.5180   11.3070 C.2   167  ALA167      0.2287
    194  O         27.9830   -3.4840   10.6500 O.2   167  ALA167     -0.2864
    195  CB        25.8540   -5.9390   11.1060 C.3   167  ALA167      0.0319
    196  N         33.4640   -7.1480   18.4510 N.3   220  TYR220     -0.1241
    197  CA        32.3090   -8.0390   18.4480 C.3   220  TYR220      0.1605
    198  C         32.7190   -9.3660   19.0770 C.2   220  TYR220      0.2264
    199  O         33.4680  -10.1350   18.4790 O.2   220  TYR220     -0.2867
    200  CB        31.8370   -8.2480   17.0070 C.3   220  TYR220      0.0534
    201  CG        30.3650   -8.5590   16.8570 C.ar  220  TYR220     -0.0201
    202  CD1       29.4100   -7.9350   17.6620 C.ar  220  TYR220     -0.0009
    203  CD2       29.9200   -9.4250   15.8640 C.ar  220  TYR220     -0.0009
    204  CE1       28.0510   -8.1660   17.4790 C.ar  220  TYR220      0.0417
    205  CE2       28.5650   -9.6620   15.6690 C.ar  220  TYR220      0.0417
    206  CZ        27.6360   -9.0300   16.4780 C.ar  220  TYR220      0.1957
    207  OH        26.2920   -9.2530   16.2830 O.3   220  TYR220     -0.2866
@<TRIPOS>BOND
     1   169   168    2
     2   175   174    1
     3   161   159   ar
     4   168   167    1
     5   176   174    1
     6   158   159    1
     7   158   155    1
     8   157   156    2
     9   174   173    2
    10   159   160   ar
    11   170   167    1
    12   170   171    1
    13   154   155    1
    14   154   152   am
    15   167   166    1
    16   151   152    1
    17   151   150    1
    18   155   156    1
    19   156   162   am
    20   173   172    1
    21   172   171    1
    22   166   164   am
    23   152   153    2
    24   165   164    2
    25   113   111    1
    26   164   163    1
    27   162   163    1
    28   111   110    1
    29   110   112    1
    30   110   107    1
    31   127   124    1
    32   127   128    1
    33   129   128   ar
    34   129   131   ar
    35   126   125    2
    36   124   125    1
    37   124   123    1
    38    61    59    1
    39   117   116    2
    40   107   108    1
    41   107   106    1
    42   128   130   ar
    43   125   133   am
    44    60    59    1
    45   116   123   am
    46   116   115    1
    47   131   132   ar
    48   108   114   am
    49   108   109    2
    50   114   115    1
    51    59    56    1
    52   130   132   ar
    53   115   118    1
    54   133   134    1
    55    56    55    1
    56    56    57    1
    57    47    48    1
    58    55    49   am
    59   134   135    1
    60   134   137    1
    61   135   136    2
    62    49    50    2
    63    49    48    1
    64   118   119    1
    65   177   178    1
    66    62    57   am
    67    62    63    1
    68    57    58    2
    69    48    51    1
    70   180   179    2
    71   119   120    1
    72   179   178    1
    73   138   137    1
    74   138   139    1
    75   194   193    2
    76   122   120   ar
    77    63    64    1
    78   178   181    1
    79    71    70    1
    80   120   121   ar
    81   195   192    1
    82    51    52    1
    83   193   192    1
    84    66    64   am
    85    66    67    1
    86    70    67    1
    87   139   140    2
    88   139   141   am
    89    64    65    2
    90   192   191    1
    91   181   182    1
    92   191   189   am
    93   187   188    1
    94    52    53   ar
    95    52    54   ar
    96    67    68    1
    97   142   143    1
    98   144   143    1
    99   144   145    2
   100   182   183   ar
   101   182   184   ar
   102   189   188    1
   103   189   190    2
   104   183   185   ar
   105   146   143    1
   106   146   147    1
   107    72    68   am
   108    72    73    1
   109    68    69    2
   110   184   186   ar
   111   147   148    1
   112   147   149    1
   113   185   186   ar
   114    73    74    1
   115    75    74    2
   116    14    13    1
   117    74    76   am
   118   205   203   ar
   119   205   206   ar
   120   203   201   ar
   121    83    82    1
   122    83    84    1
   123   105   103    1
   124   207   206    1
   125   101   100    2
   126   206   204   ar
   127    82    78   am
   128   100    99    1
   129    15    13    1
   130   103   102    1
   131   103   104    1
   132    13    10    1
   133    76    77    1
   134    85    84    2
   135   201   200    1
   136   201   202   ar
   137   200   197    1
   138   102    99    1
   139    84    86   am
   140    78    79    2
   141    78    77    1
   142   204   202   ar
   143    99    98    1
   144    77    80    1
   145     9    10    1
   146    10    11    1
   147    98    88   am
   148    86    87    1
   149     8     6    1
   150   197   196    1
   151   197   198    1
   152   199   198    2
   153    88    89    2
   154    88    87    1
   155    80    81    1
   156    87    90    1
   157     6     5    1
   158    11    16   am
   159    11    12    2
   160     4     3    2
   161    16    17    1
   162    19    18    2
   163    36    35    1
   164     3     2    1
   165     5     2    1
   166     5     7    1
   167    90    91    1
   168    44    46   ar
   169    44    42   ar
   170    46    45   ar
   171    18    17    1
   172    18    23   am
   173    40    39    2
   174    17    20    1
   175     2     1    1
   176    35    32    1
   177    21    20    1
   178    24    23    1
   179    24    27    1
   180    24    25    1
   181    91    93   ar
   182    91    92   ar
   183    31    32    1
   184    31    25   am
   185    93    95   ar
   186    38    39    1
   187    38    41    1
   188    38    37    1
   189    42    41    1
   190    42    43   ar
   191    45    43   ar
   192    20    22    1
   193    32    33    1
   194    27    28    1
   195    27    29    1
   196    25    26    2
   197    28    30    1
   198    92    94   ar
   199    95    96   ar
   200    94    96   ar
   201    96    97    1
   202    33    34    2
