@<TRIPOS>MOLECULE
tmp/1r1aA00.pdb
 160 154 0 0 0
SMALL
GASTEIGER

@<TRIPOS>ATOM
      1  N         48.4370    9.6320  126.8790 N.3    73  VAL73      -0.1245
      2  CA        47.1600    9.3380  127.5870 C.3    73  VAL73       0.1561
      3  C         47.4320    8.4160  128.7680 C.2    73  VAL73       0.2260
      4  O         46.5160    8.0850  129.5430 O.2    73  VAL73      -0.2867
      5  CB        46.2040    8.7080  126.5430 C.3    73  VAL73       0.0252
      6  CG1       46.0220    9.5410  125.2930 C.3    73  VAL73       0.0019
      7  CG2       46.6640    7.3200  126.1450 C.3    73  VAL73       0.0019
      8  N         47.2240   -1.5510  132.8230 N.3    95  TRP95      -0.1241
      9  CA        46.4430   -0.3530  132.6300 C.3    95  TRP95       0.1605
     10  C         45.1330   -0.6160  131.8980 C.2    95  TRP95       0.2264
     11  O         45.0210   -1.3160  130.8930 O.2    95  TRP95      -0.2867
     12  CB        47.1860    0.6680  131.7740 C.3    95  TRP95       0.0550
     13  CG        46.5490    2.0080  131.6680 C.ar   95  TRP95       0.0003
     14  CD1       46.3750    2.8960  132.6930 C.ar   95  TRP95       0.0946
     15  CD2       46.0680    2.6750  130.4910 C.ar   95  TRP95       0.0152
     16  NE1       45.7940    4.0520  132.2280 N.ar   95  TRP95      -0.2442
     17  CE2       45.6030    3.9420  130.8790 C.ar   95  TRP95       0.0810
     18  CE3       45.9950    2.3470  129.1520 C.ar   95  TRP95       0.0012
     19  CZ2       45.0750    4.8450  129.9710 C.ar   95  TRP95       0.0191
     20  CZ3       45.4490    3.2440  128.2700 C.ar   95  TRP95       0.0001
     21  CH2       44.9910    4.4800  128.6440 C.ar   95  TRP95       0.0015
     22  N         42.5510    1.0270  129.7600 N.3    97  ILE97      -0.1231
     23  CA        42.4450    1.9040  128.6140 C.3    97  ILE97       0.1692
     24  C         41.4160    2.9890  128.7690 C.2    97  ILE97       0.2593
     25  O         40.2910    2.7240  129.2410 O.2    97  ILE97      -0.2718
     26  CB        42.2650    0.8040  127.5010 C.3    97  ILE97       0.0266
     27  CG1       43.1330    1.2290  126.2940 C.3    97  ILE97       0.0019
     28  CG2       40.8050    0.4070  127.1720 C.3    97  ILE97       0.0020
     29  CD1       44.4910    0.4340  126.2160 C.3    97  ILE97       0.0001
     30  N         41.7210    4.2210  128.4180 N.am   98  THR98      -0.1939
     31  CA        40.7950    5.3380  128.5270 C.3    98  THR98       0.2028
     32  C         41.4840    6.6110  128.0720 C.2    98  THR98       0.2642
     33  O         42.6930    6.7510  128.2860 O.2    98  THR98      -0.2714
     34  CB        40.2460    5.5640  129.9850 C.3    98  THR98       0.1808
     35  OG1       39.6600    6.8920  130.1410 O.3    98  THR98      -0.2208
     36  CG2       41.4440    5.3970  130.9000 C.3    98  THR98       0.0379
     37  N         40.6240    7.4610  127.5450 N.am   99  LEU99      -0.1963
     38  CA        41.1870    8.7190  127.0750 C.3    99  LEU99       0.1728
     39  C         41.1780    9.8060  128.1270 C.2    99  LEU99       0.2612
     40  O         41.6080   10.9270  127.7580 O.2    99  LEU99      -0.2715
     41  CB        40.3480    9.1070  125.8640 C.3    99  LEU99       0.0311
     42  CG        40.5190    8.5090  124.4950 C.3    99  LEU99       0.0022
     43  CD1       39.6320    9.1900  123.4530 C.3    99  LEU99       0.0001
     44  CD2       41.9820    8.6050  124.1440 C.3    99  LEU99       0.0001
     45  N         40.6990    9.4970  129.3130 N.am  100  GLN100     -0.2030
     46  CA        40.6430   10.5790  130.3250 C.3   100  GLN100      0.1287
     47  C         41.5320   10.4700  131.5490 C.3   100  GLN100      0.2036
     48  O         40.9590   10.8680  132.5770 O.3   100  GLN100     -0.2185
     49  CB        39.2370   10.6160  130.9150 C.3   100  GLN100      0.0340
     50  CG        38.4050    9.3570  130.8610 C.3   100  GLN100      0.0904
     51  CD        36.9820    9.8750  131.0150 C.2   100  GLN100      0.2608
     52  OE1       36.1170    9.3840  131.7100 O.2   100  GLN100     -0.2717
     53  NE2       36.6470   10.9820  130.3500 N.am  100  GLN100     -0.0878
     54  N         35.5970    6.3030  116.1240 N.3   117  PHE117     -0.1241
     55  CA        36.8420    6.2980  115.3690 C.3   117  PHE117      0.1605
     56  C         37.7190    5.0730  115.6360 C.2   117  PHE117      0.2264
     57  O         37.6370    4.3900  116.6590 O.2   117  PHE117     -0.2867
     58  CB        37.6580    7.5450  115.8200 C.3   117  PHE117      0.0534
     59  CG        37.8080    7.6630  117.3140 C.ar  117  PHE117     -0.0203
     60  CD1       38.9580    7.1980  117.9500 C.ar  117  PHE117     -0.0042
     61  CD2       36.8320    8.2320  118.1210 C.ar  117  PHE117     -0.0042
     62  CE1       39.1420    7.2570  119.3130 C.ar  117  PHE117     -0.0003
     63  CE2       36.9730    8.3240  119.5010 C.ar  117  PHE117     -0.0003
     64  CZ        38.1380    7.8320  120.0850 C.ar  117  PHE117     -0.0000
     65  N         41.4720    3.9970  116.1750 N.3   119  SER119     -0.1217
     66  CA        42.5660    4.5280  116.9720 C.3   119  SER119      0.1889
     67  C         43.9140    3.9260  116.6110 C.2   119  SER119      0.2288
     68  O         44.0080    2.7140  116.3860 O.2   119  SER119     -0.2866
     69  CB        42.1950    4.1330  118.4090 C.3   119  SER119      0.2089
     70  OG        40.7890    4.1410  118.6930 O.3   119  SER119     -0.2183
     71  N         47.6520    3.6300  118.1190 N.3   121  ILE121     -0.1245
     72  CA        48.4390    3.6600  119.3370 C.3   121  ILE121      0.1561
     73  C         49.8990    3.5080  118.9580 C.2   121  ILE121      0.2260
     74  O         50.2760    2.6320  118.1980 O.2   121  ILE121     -0.2867
     75  CB        47.8390    2.5390  120.2450 C.3   121  ILE121      0.0252
     76  CG1       46.4220    2.9840  120.6760 C.3   121  ILE121      0.0019
     77  CG2       48.7200    2.0960  121.4380 C.3   121  ILE121      0.0019
     78  CD1       45.9800    2.2940  122.0090 C.3   121  ILE121      0.0001
     79  N         36.2860   -0.2310  118.7140 N.3   183  LEU183     -0.1301
     80  CA        35.9210   -1.3360  119.5930 C.3   183  LEU183      0.1247
     81  C         34.6590   -1.0810  120.3520 C.3   183  LEU183      0.2009
     82  O         35.0710   -0.9390  121.5320 O.3   183  LEU183     -0.2188
     83  CB        37.0170   -1.5140  120.6710 C.3   183  LEU183      0.0217
     84  CG        38.4570   -1.4440  120.2190 C.3   183  LEU183      0.0015
     85  CD1       39.2760   -0.8250  121.3300 C.3   183  LEU183      0.0000
     86  CD2       38.8270   -2.8650  119.7990 C.3   183  LEU183      0.0000
     87  N         31.3000    5.5270  120.6370 N.3   189  TYR189     -0.1227
     88  CA        31.9740    5.5950  121.9470 C.3   189  TYR189      0.1736
     89  C         31.2230    6.7570  122.6450 C.2   189  TYR189      0.2595
     90  O         31.0240    7.8480  122.1250 O.2   189  TYR189     -0.2718
     91  CB        33.4530    5.8920  121.9720 C.3   189  TYR189      0.0548
     92  CG        34.4620    4.9530  121.4120 C.ar  189  TYR189     -0.0200
     93  CD1       34.4110    3.5740  121.6070 C.ar  189  TYR189     -0.0009
     94  CD2       35.5260    5.4580  120.6630 C.ar  189  TYR189     -0.0009
     95  CE1       35.3910    2.7420  121.0530 C.ar  189  TYR189      0.0417
     96  CE2       36.5230    4.6540  120.1050 C.ar  189  TYR189      0.0417
     97  CZ        36.4440    3.2800  120.3050 C.ar  189  TYR189      0.1957
     98  OH        37.4360    2.5300  119.7450 O.3   189  TYR189     -0.2866
     99  N         30.7860    6.3840  123.8210 N.am  190  TYR190     -0.1962
    100  CA        30.0400    7.2480  124.7520 C.3   190  TYR190      0.1771
    101  C         31.0570    8.1230  125.5000 C.2   190  TYR190      0.2619
    102  O         31.7380    7.6370  126.4000 O.2   190  TYR190     -0.2715
    103  CB        29.2220    6.4960  125.8010 C.3   190  TYR190      0.0574
    104  CG        27.7750    6.2040  125.5790 C.ar  190  TYR190     -0.0198
    105  CD1       27.3440    4.8940  125.4660 C.ar  190  TYR190     -0.0009
    106  CD2       26.8140    7.2040  125.4860 C.ar  190  TYR190     -0.0009
    107  CE1       26.0060    4.5560  125.2600 C.ar  190  TYR190      0.0417
    108  CE2       25.4690    6.9230  125.2870 C.ar  190  TYR190      0.0417
    109  CZ        25.0700    5.5890  125.1790 C.ar  190  TYR190      0.1957
    110  OH        23.7420    5.2810  124.9870 O.3   190  TYR190     -0.2866
    111  N         31.0950    9.3460  125.0640 N.am  191  MET191     -0.1977
    112  CA        32.0110   10.3660  125.6140 C.3   191  MET191      0.1605
    113  C         31.4090   10.7390  126.9680 C.2   191  MET191      0.2287
    114  O         32.0950   11.1880  127.8840 O.2   191  MET191     -0.2864
    115  CB        32.1510   11.4440  124.5670 C.3   191  MET191      0.0413
    116  CG        33.5010   11.9730  124.2460 C.3   191  MET191      0.0598
    117  SD        34.7210   10.7540  124.7660 S.3   191  MET191     -0.1393
    118  CE        34.5780    9.3350  123.7040 C.3   191  MET191      0.0692
    119  N         30.3900    7.4230  132.5050 N.3   207  SER207     -0.1273
    120  CA        31.0460    7.0120  131.2790 C.3   207  SER207      0.1575
    121  C         31.8510    5.8090  131.7360 C.3   207  SER207      0.2036
    122  O         33.0190    6.0060  131.4020 O.3   207  SER207     -0.2187
    123  CB        32.0750    7.9520  130.6990 C.3   207  SER207      0.2036
    124  OG        31.9850    9.3320  130.9090 O.3   207  SER207     -0.2187
    125  N         31.8070    2.1650  128.9650 N.3   211  ASN211     -0.1240
    126  CA        33.0470    1.7320  128.3320 C.3   211  ASN211      0.1653
    127  C         34.1510    1.1140  129.1640 C.2   211  ASN211      0.2266
    128  O         34.9560    1.8520  129.7360 O.2   211  ASN211     -0.2867
    129  CB        33.6110    2.8520  127.4710 C.3   211  ASN211      0.1155
    130  CG        32.8150    4.1190  127.6890 C.2   211  ASN211      0.2627
    131  OD1       32.4590    4.6800  126.6500 O.2   211  ASN211     -0.2716
    132  ND2       32.5820    4.4540  128.9450 N.am  211  ASN211     -0.0877
    133  N         36.7750   -1.2880  127.9850 N.3   213  MET213     -0.1301
    134  CA        37.4410   -1.8870  126.8410 C.3   213  MET213      0.1256
    135  C         38.6150   -2.8160  127.1000 C.3   213  MET213      0.2010
    136  O         39.3380   -2.9100  126.0420 O.3   213  MET213     -0.2188
    137  CB        38.1880   -0.7880  126.0160 C.3   213  MET213      0.0333
    138  CG        37.3770   -0.4710  124.7760 C.3   213  MET213      0.0592
    139  SD        36.3270    0.8780  125.3630 S.3   213  MET213     -0.1393
    140  CE        34.7540    0.7170  124.4860 C.3   213  MET213      0.0692
    141  N         48.0670    8.4860  121.5090 N.3   237  HIS237     -0.1241
    142  CA        46.8490    8.0590  120.8240 C.3   237  HIS237      0.1621
    143  C         46.3530    9.1490  119.8750 C.2   237  HIS237      0.2264
    144  O         46.2660   10.3410  120.1380 O.2   237  HIS237     -0.2867
    145  CB        45.7060    7.6080  121.7470 C.3   237  HIS237      0.0745
    146  CG        44.3940    7.3690  121.0650 C.ar  237  HIS237      0.0817
    147  ND1       43.3950    8.2950  120.9050 N.ar  237  HIS237     -0.2268
    148  CD2       43.8970    6.2450  120.4950 C.ar  237  HIS237      0.1154
    149  CE1       42.3570    7.7680  120.2920 C.ar  237  HIS237      0.1986
    150  NE2       42.6450    6.5180  120.0330 N.ar  237  HIS237     -0.2212
    151  N         36.0650    9.5740  134.3100 N.3   259  HIS259     -0.1241
    152  CA        34.7810    8.8700  134.1610 C.3   259  HIS259      0.1621
    153  C         33.6560    9.5130  134.9700 C.2   259  HIS259      0.2264
    154  O         32.5940    8.9220  135.2200 O.2   259  HIS259     -0.2867
    155  CB        34.9180    7.3890  134.6030 C.3   259  HIS259      0.0745
    156  CG        35.6520    6.6090  133.5680 C.ar  259  HIS259      0.0817
    157  ND1       35.9810    7.1510  132.3440 N.ar  259  HIS259     -0.2268
    158  CD2       36.0600    5.3230  133.5140 C.ar  259  HIS259      0.1154
    159  CE1       36.6180    6.2410  131.6010 C.ar  259  HIS259      0.1986
    160  NE2       36.6510    5.1130  132.2770 N.ar  259  HIS259     -0.2212
@<TRIPOS>BOND
     1    55    56    1
     2    55    58    1
     3    55    54    1
     4    56    57    2
     5    58    59    1
     6    65    66    1
     7    68    67    2
     8    67    66    1
     9    66    69    1
    10    59    60   ar
    11    59    61   ar
    12    60    62   ar
    13    71    72    1
    14    61    63   ar
    15    74    73    2
    16    69    70    1
    17    79    80    1
    18    73    72    1
    19    62    64   ar
    20    72    75    1
    21    63    64   ar
    22    80    81    1
    23    80    83    1
    24    98    97    1
    25    86    84    1
    26   143   144    2
    27   143   142    1
    28   150   149   ar
    29   150   148   ar
    30    96    97   ar
    31    96    94   ar
    32    84    83    1
    33    84    85    1
    34    75    76    1
    35    75    77    1
    36   149   147   ar
    37    97    95   ar
    38    81    82    1
    39   148   146   ar
    40    87    88    1
    41    94    92   ar
    42    76    78    1
    43   142   141    1
    44   142   145    1
    45   147   146   ar
    46    95    93   ar
    47   146   145    1
    48    92    93   ar
    49    92    91    1
    50    88    91    1
    51    88    89    1
    52    90    89    2
    53    89    99   am
    54    43    42    1
    55   118   117    1
    56    99   100    1
    57    44    42    1
    58   116   115    1
    59   116   117    1
    60   140   139    1
    61    42    41    1
    62   115   112    1
    63   100   101    1
    64   100   103    1
    65   138   139    1
    66   138   137    1
    67   110   109    1
    68   111   101   am
    69   111   112    1
    70   109   107   ar
    71   109   108   ar
    72   107   105   ar
    73   108   106   ar
    74     6     5    1
    75   105   104   ar
    76   106   104   ar
    77   101   102    2
    78   104   103    1
    79   112   113    1
    80    41    38    1
    81   137   134    1
    82   136   135    1
    83     7     5    1
    84    29    27    1
    85    27    26    1
    86     5     2    1
    87   131   130    2
    88   134   135    1
    89   134   133    1
    90     1     2    1
    91   113   114    2
    92    38    37    1
    93    38    39    1
    94    28    26    1
    95   129   130    1
    96   129   126    1
    97    26    23    1
    98    37    32   am
    99     2     3    1
   100   130   132   am
   101    40    39    2
   102    32    33    2
   103    32    31    1
   104    39    45   am
   105    20    21   ar
   106    20    18   ar
   107   126   125    1
   108   126   127    1
   109    30    31    1
   110    30    24   am
   111    31    34    1
   112    23    24    1
   113    23    22    1
   114    21    19   ar
   115     3     4    2
   116    24    25    2
   117    18    15   ar
   118   127   128    2
   119    45    46    1
   120    19    17   ar
   121    34    35    1
   122    34    36    1
   123    46    49    1
   124    46    47    1
   125    53    51   am
   126    15    17   ar
   127    15    13   ar
   128   123   124    1
   129   123   120    1
   130    50    49    1
   131    50    51    1
   132    17    16   ar
   133    11    10    2
   134    51    52    2
   135   120   121    1
   136   120   119    1
   137   122   121    1
   138    47    48    1
   139   159   160   ar
   140   159   157   ar
   141    13    12    1
   142    13    14   ar
   143    12     9    1
   144    10     9    1
   145    16    14   ar
   146   160   158   ar
   147   157   156   ar
   148     9     8    1
   149   158   156   ar
   150   156   155    1
   151   152   151    1
   152   152   155    1
   153   152   153    1
   154   153   154    2
