@<TRIPOS>MOLECULE
tmp/1r1dA00.pdb
 113 108 0 0 0
SMALL
GASTEIGER

@<TRIPOS>ATOM
      1  N         32.0260   13.3880   12.7390 N.3    19  GLY19      -0.1210
      2  CA        31.5600   13.2820   14.1100 C.3    19  GLY19       0.1956
      3  C         31.1520   11.8980   14.5930 C.2    19  GLY19       0.2612
      4  O         31.2280   10.9200   13.8530 O.2    19  GLY19      -0.2717
      5  N         30.7360   11.8210   15.8550 N.am   20  PHE20      -0.1962
      6  CA        30.2930   10.5800   16.4940 C.3    20  PHE20       0.1771
      7  C         29.0410   10.0600   15.7690 C.2    20  PHE20       0.2620
      8  O         28.0600   10.7780   15.6520 O.2    20  PHE20      -0.2715
      9  CB        29.9820   10.8650   17.9760 C.3    20  PHE20       0.0574
     10  CG        29.4930    9.6670   18.7540 C.ar   20  PHE20      -0.0200
     11  CD1       30.2220    8.4780   18.7700 C.ar   20  PHE20      -0.0042
     12  CD2       28.3250    9.7460   19.5090 C.ar   20  PHE20      -0.0042
     13  CE1       29.8070    7.3780   19.5290 C.ar   20  PHE20      -0.0003
     14  CE2       27.9000    8.6530   20.2740 C.ar   20  PHE20      -0.0003
     15  CZ        28.6420    7.4630   20.2860 C.ar   20  PHE20      -0.0000
     16  N         29.1030    8.8040   15.3250 N.am   21  THR21      -0.1937
     17  CA        28.0690    8.0990   14.5620 C.3    21  THR21       0.2028
     18  C         28.0540    8.5280   13.1010 C.2    21  THR21       0.2643
     19  O         27.2460    8.0280   12.3220 O.2    21  THR21      -0.2714
     20  CB        26.5950    8.2670   15.0920 C.3    21  THR21       0.1808
     21  OG1       26.1040    9.5750   14.7680 O.3    21  THR21      -0.2208
     22  CG2       26.5120    8.0080   16.5890 C.3    21  THR21       0.0379
     23  N         28.9270    9.4590   12.7330 N.am   22  GLY22      -0.1939
     24  CA        28.9720    9.9070   11.3480 C.3    22  GLY22       0.2014
     25  C         30.0780    9.1880   10.5920 C.2    22  GLY22       0.2638
     26  O         30.5870    8.1730   11.0710 O.2    22  GLY22      -0.2714
     27  N         30.4170    9.6730    9.4010 N.am   23  ASN23      -0.1972
     28  CA        31.5110    9.0950    8.6130 C.3    23  ASN23       0.1688
     29  C         32.0230   10.0910    7.5590 C.2    23  ASN23       0.2292
     30  O         31.5570   11.2260    7.4940 O.2    23  ASN23      -0.2864
     31  CB        31.1040    7.7530    7.9690 C.3    23  ASN23       0.1181
     32  CG        29.8980    7.8650    7.0670 C.2    23  ASN23       0.2629
     33  OD1       29.9430    8.5130    6.0220 O.2    23  ASN23      -0.2716
     34  ND2       28.8090    7.2210    7.4620 N.am   23  ASN23      -0.0877
     35  N         30.0540   12.7340    5.5190 N.3    26  ASP26      -0.1239
     36  CA        29.6040   13.9940    6.0990 C.3    26  ASP26       0.1674
     37  C         30.5240   15.1770    5.8150 C.2    26  ASP26       0.2266
     38  O         30.1430   16.3180    6.0260 O.2    26  ASP26      -0.2867
     39  CB        29.4060   13.8400    7.6130 C.3    26  ASP26       0.1410
     40  CG        28.4160   12.7340    7.9680 C.2    26  ASP26       0.3668
     41  OD1       27.4290   12.5550    7.2240 O.co2  26  ASP26      -0.2456
     42  OD2       28.6140   12.0530    8.9990 O.co2  26  ASP26      -0.2456
     43  N         33.8450   18.1990   12.1680 N.3    86  LEU86      -0.1231
     44  CA        32.4090   18.3640   12.3150 C.3    86  LEU86       0.1693
     45  C         31.9420   17.7150   13.6110 C.2    86  LEU86       0.2592
     46  O         32.1960   16.5320   13.8520 O.2    86  LEU86      -0.2718
     47  CB        31.6990   17.7140   11.1210 C.3    86  LEU86       0.0284
     48  CG        30.1660   17.6550   11.1910 C.3    86  LEU86       0.0019
     49  CD1       29.6040   19.0700   11.2980 C.3    86  LEU86       0.0001
     50  CD2       29.6140   16.9470    9.9360 C.3    86  LEU86       0.0001
     51  N         31.2700   18.4940   14.4550 N.am   87  SER87      -0.1952
     52  CA        30.7500   17.9810   15.7180 C.3    87  SER87       0.1924
     53  C         31.9050   17.4120   16.5540 C.2    87  SER87       0.2314
     54  O         32.8850   18.1330   16.7930 O.2    87  SER87      -0.2863
     55  CB        29.6780   16.9240   15.4270 C.3    87  SER87       0.2116
     56  OG        28.9060   16.6600   16.5770 O.3    87  SER87      -0.2180
     57  N         20.5420    6.2700   16.0860 N.3   124  TYR124     -0.1241
     58  CA        21.4780    6.0080   14.9960 C.3   124  TYR124      0.1605
     59  C         21.3740    4.5690   14.4690 C.2   124  TYR124      0.2264
     60  O         21.3470    4.3440   13.2570 O.2   124  TYR124     -0.2867
     61  CB        22.9150    6.2690   15.4620 C.3   124  TYR124      0.0534
     62  CG        23.9770    5.7220   14.5260 C.ar  124  TYR124     -0.0201
     63  CD1       24.0930    6.1880   13.2210 C.ar  124  TYR124     -0.0009
     64  CD2       24.8930    4.7660   14.9650 C.ar  124  TYR124     -0.0009
     65  CE1       25.1000    5.7210   12.3700 C.ar  124  TYR124      0.0417
     66  CE2       25.9100    4.2970   14.1270 C.ar  124  TYR124      0.0417
     67  CZ        26.0060    4.7800   12.8340 C.ar  124  TYR124      0.1957
     68  OH        27.0260    4.3350   12.0160 O.3   124  TYR124     -0.2866
     69  N         17.9470    3.8860   12.7500 N.3   127  GLU127     -0.1245
     70  CA        17.9000    4.5990   11.4780 C.3   127  GLU127      0.1567
     71  C         18.7360    3.8540   10.4340 C.2   127  GLU127      0.2260
     72  O         18.3730    3.7890    9.2660 O.2   127  GLU127     -0.2867
     73  CB        18.4410    6.0210   11.6690 C.3   127  GLU127      0.0388
     74  CG        18.0550    7.0260   10.6020 C.3   127  GLU127      0.1160
     75  CD        18.6770    6.7400    9.2510 C.2   127  GLU127      0.3649
     76  OE1       19.9190    6.5890    9.1790 O.co2 127  GLU127     -0.2457
     77  OE2       17.9220    6.6770    8.2510 O.co2 127  GLU127     -0.2457
     78  N         17.5850    2.1500    6.8740 N.3   131  ARG131     -0.1245
     79  CA        18.2550    2.4000    5.6070 C.3   131  ARG131      0.1563
     80  C         18.7090    1.1040    4.9370 C.2   131  ARG131      0.2260
     81  O         18.8960    1.0610    3.7220 O.2   131  ARG131     -0.2867
     82  CB        19.4480    3.3390    5.8040 C.3   131  ARG131      0.0307
     83  CG        19.0580    4.7990    5.9910 C.3   131  ARG131      0.0489
     84  CD        20.2680    5.7240    5.8600 C.3   131  ARG131      0.2205
     85  NE        21.1130    5.7310    7.0530 N.pl3 131  ARG131     -0.0865
     86  CZ        22.3910    5.3580    7.0800 C.cat 131  ARG131      0.5346
     87  NH1       22.9870    4.9370    5.9710 N.pl3 131  ARG131      0.1354
     88  NH2       23.0810    5.4220    8.2160 N.pl3 131  ARG131      0.1354
     89  N         22.2890   21.2910   12.9840 N.3   210  HIS210     -0.1226
     90  CA        23.5510   20.7690   13.4980 C.3   210  HIS210      0.1752
     91  C         24.5880   20.2820   12.4610 C.2   210  HIS210      0.2595
     92  O         25.7550   20.7040   12.5000 O.2   210  HIS210     -0.2718
     93  CB        23.2710   19.6360   14.4710 C.3   210  HIS210      0.0759
     94  CG        24.5090   19.0540   15.0650 C.ar  210  HIS210      0.0818
     95  ND1       25.3180   19.7640   15.9230 N.ar  210  HIS210     -0.2268
     96  CD2       25.1040   17.8520   14.8900 C.ar  210  HIS210      0.1154
     97  CE1       26.3600   19.0230   16.2530 C.ar  210  HIS210      0.1986
     98  NE2       26.2550   17.8580   15.6400 N.ar  210  HIS210     -0.2212
     99  N         24.1740   19.3810   11.5630 N.am  211  VAL211     -0.1980
    100  CA        25.0650   18.8280   10.5300 C.3   211  VAL211      0.1595
    101  C         25.1690   19.8620    9.4080 C.2   211  VAL211      0.2287
    102  O         24.6900   19.6640    8.2800 O.2   211  VAL211     -0.2864
    103  CB        24.5180   17.4880    9.9660 C.3   211  VAL211      0.0276
    104  CG1       25.5330   16.8770    9.0130 C.3   211  VAL211      0.0022
    105  CG2       24.2080   16.5250   11.1170 C.3   211  VAL211      0.0022
    106  N         25.8400   19.3870    5.5680 N.3   214  LEU214     -0.1245
    107  CA        24.8250   18.8160    4.6820 C.3   214  LEU214      0.1561
    108  C         23.5520   19.6510    4.6090 C.2   214  LEU214      0.2260
    109  O         22.5860   19.2550    3.9580 O.2   214  LEU214     -0.2867
    110  CB        24.4520   17.4010    5.1570 C.3   214  LEU214      0.0270
    111  CG        25.5840   16.4280    5.5050 C.3   214  LEU214      0.0019
    112  CD1       24.9730   15.1020    5.9610 C.3   214  LEU214      0.0001
    113  CD2       26.4960   16.2190    4.3100 C.3   214  LEU214      0.0001
@<TRIPOS>BOND
     1    81    80    2
     2   109   108    2
     3   113   111    1
     4   108   107    1
     5   107   110    1
     6   107   106    1
     7    80    79    1
     8   110   111    1
     9   111   112    1
    10    35    36    1
    11    79    82    1
    12    79    78    1
    13    82    83    1
    14    37    38    2
    15    37    36    1
    16    84    83    1
    17    84    85    1
    18    87    86    1
    19    33    32    2
    20    36    39    1
    21    85    86    2
    22    32    34   am
    23    32    31    1
    24    86    88    1
    25    41    40   ar
    26    30    29    2
    27    29    28    1
    28    39    40    1
    29    40    42   ar
    30    31    28    1
    31    77    75   ar
    32   102   101    2
    33    28    27    1
    34   104   103    1
    35    76    75   ar
    36    75    74    1
    37    72    71    2
    38    27    25   am
    39   101   100    1
    40    50    48    1
    41   103   100    1
    42   103   105    1
    43    71    70    1
    44   100    99    1
    45    25    26    2
    46    25    24    1
    47    74    73    1
    48    47    48    1
    49    47    44    1
    50    48    49    1
    51    24    23    1
    52    70    73    1
    53    70    69    1
    54    99    91   am
    55    68    67    1
    56    43    44    1
    57    44    45    1
    58    19    18    2
    59    65    67   ar
    60    65    63   ar
    61    91    92    2
    62    91    90    1
    63    23    18   am
    64     1     2    1
    65    67    66   ar
    66    89    90    1
    67    18    17    1
    68    63    62   ar
    69    60    59    2
    70    90    93    1
    71    45    46    2
    72    45    51   am
    73     4     3    2
    74     2     3    1
    75    66    64   ar
    76    51    52    1
    77    59    58    1
    78    93    94    1
    79    62    64   ar
    80    62    61    1
    81    17    20    1
    82    17    16    1
    83     3     5   am
    84    21    20    1
    85    96    94   ar
    86    96    98   ar
    87    58    61    1
    88    58    57    1
    89    94    95   ar
    90    20    22    1
    91    16     7   am
    92    55    52    1
    93    55    56    1
    94    98    97   ar
    95     8     7    2
    96    52    53    1
    97     7     6    1
    98     5     6    1
    99    95    97   ar
   100     6     9    1
   101    53    54    2
   102     9    10    1
   103    10    11   ar
   104    10    12   ar
   105    11    13   ar
   106    12    14   ar
   107    13    15   ar
   108    14    15   ar
