@<TRIPOS>MOLECULE
tmp/1r1hA03.pdb
 245 238 0 0 0
SMALL
GASTEIGER

@<TRIPOS>ATOM
      1  N         28.4070   34.8480   46.4610 N.3    49  ARG49      -0.1245
      2  CA        29.4950   35.7950   46.2920 C.3    49  ARG49       0.1563
      3  C         29.0790   37.0310   47.0450 C.2    49  ARG49       0.2260
      4  O         27.9060   37.3670   47.0690 O.2    49  ARG49      -0.2867
      5  CB        29.6980   36.1320   44.8220 C.3    49  ARG49       0.0307
      6  CG        30.8770   37.0490   44.5340 C.3    49  ARG49       0.0489
      7  CD        30.9430   37.5670   43.0920 C.3    49  ARG49       0.2205
      8  NE        29.8330   38.4620   42.7930 N.pl3  49  ARG49      -0.0865
      9  CZ        29.4470   38.8160   41.5710 C.cat  49  ARG49       0.5346
     10  NH1       30.0670   38.3460   40.4910 N.pl3  49  ARG49       0.1354
     11  NH2       28.4160   39.6280   41.4290 N.pl3  49  ARG49       0.1354
     12  N         30.2270   45.1850   45.3710 N.3    53  PHE53      -0.1241
     13  CA        29.3470   45.2040   44.2220 C.3    53  PHE53       0.1605
     14  C         28.0170   44.5240   44.5450 C.2    53  PHE53       0.2264
     15  O         26.9420   45.0410   44.2230 O.2    53  PHE53      -0.2867
     16  CB        30.0280   44.5220   43.0470 C.3    53  PHE53       0.0534
     17  CG        29.2460   44.5870   41.7750 C.ar   53  PHE53      -0.0203
     18  CD1       29.1850   45.7620   41.0400 C.ar   53  PHE53      -0.0042
     19  CD2       28.5580   43.4860   41.3260 C.ar   53  PHE53      -0.0042
     20  CE1       28.4550   45.8340   39.8790 C.ar   53  PHE53      -0.0003
     21  CE2       27.8330   43.5410   40.1500 C.ar   53  PHE53      -0.0003
     22  CZ        27.7750   44.7280   39.4320 C.ar   53  PHE53      -0.0000
     23  N         23.7570   45.7020   45.0270 N.3    57  ARG57      -0.1245
     24  CA        22.5690   44.9640   44.6210 C.3    57  ARG57       0.1563
     25  C         21.6330   44.7480   45.7950 C.2    57  ARG57       0.2260
     26  O         20.4270   44.9780   45.6790 O.2    57  ARG57      -0.2867
     27  CB        22.9470   43.6350   43.9660 C.3    57  ARG57       0.0307
     28  CG        23.7600   43.8250   42.7090 C.3    57  ARG57       0.0489
     29  CD        23.8490   42.6050   41.8150 C.3    57  ARG57       0.2205
     30  NE        24.3420   42.9850   40.4910 N.pl3  57  ARG57      -0.0865
     31  CZ        24.8520   42.1420   39.6120 C.cat  57  ARG57       0.5346
     32  NH1       24.9410   40.8470   39.9040 N.pl3  57  ARG57       0.1354
     33  NH2       25.2780   42.5900   38.4390 N.pl3  57  ARG57       0.1354
     34  N         24.3270   47.0340   36.8860 N.3   489  ASN489     -0.1225
     35  CA        25.1270   46.4430   35.8330 C.3   489  ASN489      0.1785
     36  C         25.1840   47.4370   34.6870 C.2   489  ASN489      0.2597
     37  O         24.5230   48.4750   34.7300 O.2   489  ASN489     -0.2718
     38  CB        24.5150   45.1100   35.3730 C.3   489  ASN489      0.1169
     39  CG        25.5730   44.0800   35.0200 C.2   489  ASN489      0.2627
     40  OD1       26.7160   44.4370   34.7360 O.2   489  ASN489     -0.2716
     41  ND2       25.1950   42.8050   35.0140 N.am  489  ASN489     -0.0877
     42  N         25.9790   47.1340   33.6710 N.am  490  ALA490     -0.1966
     43  CA        25.9080   47.8730   32.4180 C.3   490  ALA490      0.1728
     44  C         26.0080   46.8710   31.2830 C.2   490  ALA490      0.2616
     45  O         26.2400   45.6780   31.5190 O.2   490  ALA490     -0.2715
     46  CB        27.0210   48.8950   32.3280 C.3   490  ALA490      0.0334
     47  N         25.8410   47.3450   30.0580 N.am  491  PHE491     -0.1960
     48  CA        25.6250   46.4360   28.9320 C.3   491  PHE491      0.1771
     49  C         26.1980   46.9860   27.6330 C.2   491  PHE491      0.2619
     50  O         26.2480   48.2040   27.4220 O.2   491  PHE491     -0.2715
     51  CB        24.1390   46.1430   28.7450 C.3   491  PHE491      0.0574
     52  CG        23.4650   45.6050   29.9750 C.ar  491  PHE491     -0.0200
     53  CD1       23.3500   44.2400   30.1790 C.ar  491  PHE491     -0.0042
     54  CD2       22.9550   46.4650   30.9270 C.ar  491  PHE491     -0.0042
     55  CE1       22.7240   43.7480   31.3190 C.ar  491  PHE491     -0.0003
     56  CE2       22.3310   45.9760   32.0650 C.ar  491  PHE491     -0.0003
     57  CZ        22.2110   44.6210   32.2540 C.ar  491  PHE491     -0.0000
     58  N         26.6110   46.0680   26.7650 N.am  492  TYR492     -0.1974
     59  CA        26.8110   46.3500   25.3500 C.3   492  TYR492      0.1639
     60  C         26.0250   45.3570   24.5190 C.2   492  TYR492      0.2290
     61  O         25.9820   44.1730   24.8390 O.2   492  TYR492     -0.2864
     62  CB        28.2880   46.2400   24.9770 C.3   492  TYR492      0.0560
     63  CG        28.5320   46.4100   23.5020 C.ar  492  TYR492     -0.0198
     64  CD1       28.5000   47.6710   22.9300 C.ar  492  TYR492     -0.0009
     65  CD2       28.7880   45.3160   22.6740 C.ar  492  TYR492     -0.0009
     66  CE1       28.7150   47.8500   21.6010 C.ar  492  TYR492      0.0417
     67  CE2       28.9940   45.4880   21.3240 C.ar  492  TYR492      0.0417
     68  CZ        28.9600   46.7720   20.7960 C.ar  492  TYR492      0.1957
     69  OH        29.1690   47.0170   19.4620 O.3   492  TYR492     -0.2866
     70  N         23.4700   51.4700   38.3160 N.3   505  ILE505     -0.1245
     71  CA        24.9210   51.4680   38.4850 C.3   505  ILE505      0.1561
     72  C         25.5030   52.8860   38.5910 C.2   505  ILE505      0.2260
     73  O         26.7040   53.0490   38.7910 O.2   505  ILE505     -0.2867
     74  CB        25.6110   50.6790   37.3500 C.3   505  ILE505      0.0252
     75  CG1       26.9850   50.1710   37.8260 C.3   505  ILE505      0.0019
     76  CG2       25.7430   51.5390   36.1170 C.3   505  ILE505      0.0019
     77  CD1       27.6340   49.1420   36.9250 C.3   505  ILE505      0.0001
     78  N         30.9330   53.8610   41.9740 N.3   510  PHE510     -0.1241
     79  CA        31.1400   54.1170   40.5440 C.3   510  PHE510      0.1605
     80  C         31.0470   55.6010   40.2230 C.2   510  PHE510      0.2264
     81  O         31.9370   56.1740   39.5950 O.2   510  PHE510     -0.2867
     82  CB        30.1060   53.3620   39.7070 C.3   510  PHE510      0.0534
     83  CG        30.2880   51.8500   39.7150 C.ar  510  PHE510     -0.0203
     84  CD1       31.2180   51.2260   38.8890 C.ar  510  PHE510     -0.0042
     85  CD2       29.5100   51.0640   40.5440 C.ar  510  PHE510     -0.0042
     86  CE1       31.3530   49.8740   38.8930 C.ar  510  PHE510     -0.0003
     87  CE2       29.6490   49.6900   40.5520 C.ar  510  PHE510     -0.0003
     88  CZ        30.5750   49.0940   39.7300 C.ar  510  PHE510     -0.0000
     89  N         37.8170   56.2700   37.5700 N.3   522  GLY522     -0.1210
     90  CA        38.3210   54.9410   37.8870 C.3   522  GLY522      0.1956
     91  C         37.2020   53.9550   38.1780 C.2   522  GLY522      0.2612
     92  O         37.4280   52.7450   38.2630 O.2   522  GLY522     -0.2717
     93  N         35.9930   54.4840   38.3330 N.am  523  GLY523     -0.1956
     94  CA        34.8000   53.6810   38.5390 C.3   523  GLY523      0.1869
     95  C         33.9250   53.6020   37.3010 C.2   523  GLY523      0.2309
     96  O         34.1180   52.7350   36.4510 O.2   523  GLY523     -0.2863
     97  N         35.7390   53.7050   33.9950 N.3   526  MET526     -0.1230
     98  CA        36.2190   52.3790   33.6290 C.3   526  MET526      0.1702
     99  C         35.0740   51.5400   33.0780 C.2   526  MET526      0.2592
    100  O         35.2580   50.8300   32.0970 O.2   526  MET526     -0.2718
    101  CB        36.8710   51.6800   34.8340 C.3   526  MET526      0.0401
    102  CG        36.9460   50.1420   34.7110 C.3   526  MET526      0.0596
    103  SD        38.1340   49.6630   33.4440 S.3   526  MET526     -0.1393
    104  CE        38.2340   47.8540   33.7300 C.3   526  MET526      0.0692
    105  N         33.8820   51.6280   33.6790 N.am  527  VAL527     -0.1980
    106  CA        32.7500   50.8340   33.1930 C.3   527  VAL527      0.1595
    107  C         32.3370   51.2660   31.7740 C.2   527  VAL527      0.2287
    108  O         32.1050   50.4250   30.9110 O.2   527  VAL527     -0.2864
    109  CB        31.5330   50.8930   34.1450 C.3   527  VAL527      0.0276
    110  CG1       30.3430   50.1660   33.5370 C.3   527  VAL527      0.0022
    111  CG2       31.8840   50.2850   35.4940 C.3   527  VAL527      0.0022
    112  N         34.8640   49.9070   29.3440 N.3   530  HIS530     -0.1226
    113  CA        34.5800   48.4710   29.2830 C.3   530  HIS530      0.1752
    114  C         33.4760   48.1390   28.2790 C.2   530  HIS530      0.2595
    115  O         33.6780   47.2940   27.4060 O.2   530  HIS530     -0.2718
    116  CB        34.2410   47.9330   30.6730 C.3   530  HIS530      0.0759
    117  CG        33.8800   46.4780   30.6980 C.ar  530  HIS530      0.0818
    118  ND1       34.7070   45.5160   31.2360 N.ar  530  HIS530     -0.2268
    119  CD2       32.7710   45.8270   30.2760 C.ar  530  HIS530      0.1154
    120  CE1       34.1280   44.3350   31.1330 C.ar  530  HIS530      0.1986
    121  NE2       32.9520   44.4950   30.5500 N.ar  530  HIS530     -0.2212
    122  N         32.3170   48.7930   28.3940 N.am  531  GLU531     -0.1979
    123  CA        31.2090   48.5320   27.4740 C.3   531  GLU531      0.1602
    124  C         31.5390   48.9210   26.0240 C.2   531  GLU531      0.2287
    125  O         31.2210   48.1850   25.0950 O.2   531  GLU531     -0.2864
    126  CB        29.9280   49.2620   27.9050 C.3   531  GLU531      0.0415
    127  CG        29.3890   48.9390   29.2960 C.3   531  GLU531      0.1163
    128  CD        29.4660   47.4730   29.6920 C.2   531  GLU531      0.3649
    129  OE1       29.0210   46.5810   28.9240 O.co2 531  GLU531     -0.2457
    130  OE2       29.9350   47.2130   30.8210 O.co2 531  GLU531     -0.2457
    131  N         33.7140   46.4090   24.3610 N.3   534  HIS534     -0.1241
    132  CA        32.9980   45.1970   23.9700 C.3   534  HIS534      0.1621
    133  C         32.6300   45.2090   22.4880 C.2   534  HIS534      0.2264
    134  O         32.4410   44.1570   21.8800 O.2   534  HIS534     -0.2867
    135  CB        31.7120   45.0340   24.7860 C.3   534  HIS534      0.0745
    136  CG        31.8640   44.1890   26.0150 C.ar  534  HIS534      0.0817
    137  ND1       32.3790   42.9120   25.9820 N.ar  534  HIS534     -0.2268
    138  CD2       31.5540   44.4380   27.3120 C.ar  534  HIS534      0.1154
    139  CE1       32.3750   42.4060   27.2050 C.ar  534  HIS534      0.1986
    140  NE2       31.8880   43.3180   28.0330 N.ar  534  HIS534     -0.2212
    141  N         35.8020   39.5940   28.1530 N.3   593  GLU593     -0.1245
    142  CA        35.7050   40.4340   29.3470 C.3   593  GLU593      0.1567
    143  C         37.0450   41.0220   29.7440 C.2   593  GLU593      0.2260
    144  O         37.1230   42.1740   30.1930 O.2   593  GLU593     -0.2867
    145  CB        35.1260   39.6380   30.5140 C.3   593  GLU593      0.0388
    146  CG        33.6860   39.2320   30.3060 C.3   593  GLU593      0.1160
    147  CD        32.7660   40.4310   30.1490 C.2   593  GLU593      0.3649
    148  OE1       33.0960   41.5490   30.6310 O.co2 593  GLU593     -0.2457
    149  OE2       31.7120   40.2390   29.5420 O.co2 593  GLU593     -0.2457
    150  N         38.1030   44.9030   30.0090 N.3   597  ASP597     -0.1239
    151  CA        38.6250   45.4430   31.2590 C.3   597  ASP597      0.1674
    152  C         39.9290   46.2160   31.0210 C.2   597  ASP597      0.2266
    153  O         40.1120   47.3380   31.5170 O.2   597  ASP597     -0.2867
    154  CB        38.9040   44.3150   32.2610 C.3   597  ASP597      0.1410
    155  CG        37.6600   43.8440   32.9990 C.2   597  ASP597      0.3668
    156  OD1       37.7570   42.7920   33.6740 O.co2 597  ASP597     -0.2456
    157  OD2       36.5640   44.4440   32.9740 O.co2 597  ASP597     -0.2456
    158  N         38.9810   52.1010   41.6300 N.3   636  PHE636     -0.1227
    159  CA        38.9290   51.0420   40.6350 C.3   636  PHE636      0.1736
    160  C         38.9560   49.6680   41.3180 C.2   636  PHE636      0.2595
    161  O         38.0440   48.8520   41.1450 O.2   636  PHE636     -0.2718
    162  CB        40.1070   51.2330   39.6700 C.3   636  PHE636      0.0547
    163  CG        40.3040   50.1080   38.6980 C.ar  636  PHE636     -0.0202
    164  CD1       41.3530   49.2370   38.8590 C.ar  636  PHE636     -0.0042
    165  CD2       39.4680   49.9560   37.6030 C.ar  636  PHE636     -0.0042
    166  CE1       41.5590   48.2030   37.9690 C.ar  636  PHE636     -0.0003
    167  CE2       39.6700   48.9220   36.7010 C.ar  636  PHE636     -0.0003
    168  CZ        40.7200   48.0410   36.8900 C.ar  636  PHE636     -0.0000
    169  N         39.9760   49.4350   42.1360 N.am  637  ALA637     -0.1980
    170  CA        40.1630   48.1280   42.7620 C.3   637  ALA637      0.1597
    171  C         39.0270   47.7620   43.7230 C.2   637  ALA637      0.2287
    172  O         38.6170   46.6080   43.8030 O.2   637  ALA637     -0.2864
    173  CB        41.4970   48.0890   43.4950 C.3   637  ALA637      0.0319
    174  N         35.9740   48.4730   43.7930 N.3   639  VAL639     -0.1231
    175  CA        34.7770   47.9390   43.1590 C.3   639  VAL639      0.1692
    176  C         34.6780   46.4380   43.4180 C.2   639  VAL639      0.2592
    177  O         33.5750   45.9010   43.5330 O.2   639  VAL639     -0.2718
    178  CB        34.7270   48.2090   41.6480 C.3   639  VAL639      0.0266
    179  CG1       33.5890   47.4330   41.0200 C.3   639  VAL639      0.0020
    180  CG2       34.5500   49.6840   41.3780 C.3   639  VAL639      0.0020
    181  N         35.8220   45.7500   43.4850 N.am  640  TRP640     -0.1976
    182  CA        35.8040   44.2940   43.5340 C.3   640  TRP640      0.1640
    183  C         36.3090   43.7120   44.8520 C.2   640  TRP640      0.2290
    184  O         36.6220   42.5210   44.9200 O.2   640  TRP640     -0.2864
    185  CB        36.5790   43.7020   42.3400 C.3   640  TRP640      0.0576
    186  CG        35.8070   43.8850   41.0710 C.ar  640  TRP640      0.0006
    187  CD1       36.1680   44.6270   39.9890 C.ar  640  TRP640      0.0946
    188  CD2       34.5100   43.3610   40.7840 C.ar  640  TRP640      0.0152
    189  NE1       35.1780   44.5870   39.0360 N.ar  640  TRP640     -0.2442
    190  CE2       34.1470   43.8140   39.5010 C.ar  640  TRP640      0.0810
    191  CE3       33.6140   42.5410   41.4830 C.ar  640  TRP640      0.0012
    192  CZ2       32.9290   43.4820   38.9030 C.ar  640  TRP640      0.0191
    193  CZ3       32.3970   42.2110   40.8870 C.ar  640  TRP640      0.0001
    194  CH2       32.0740   42.6780   39.6090 C.ar  640  TRP640      0.0015
    195  N         30.9260   31.8080   34.3720 N.3   656  ASP656     -0.1225
    196  CA        31.0280   33.2490   34.2770 C.3   656  ASP656      0.1805
    197  C         32.0810   33.6150   33.2540 C.2   656  ASP656      0.2598
    198  O         33.2170   33.1530   33.3370 O.2   656  ASP656     -0.2718
    199  CB        31.3750   33.8510   35.6370 C.3   656  ASP656      0.1424
    200  CG        31.0870   35.3400   35.7040 C.2   656  ASP656      0.3668
    201  OD1       30.9780   35.9790   34.6380 O.co2 656  ASP656     -0.2456
    202  OD2       30.9620   35.9500   36.7840 O.co2 656  ASP656     -0.2456
    203  N         31.7080   34.4520   32.2940 N.am  657  VAL657     -0.1966
    204  CA        32.6310   34.8530   31.2390 C.3   657  VAL657      0.1727
    205  C         33.5270   35.9910   31.7100 C.2   657  VAL657      0.2616
    206  O         34.4610   36.3850   31.0220 O.2   657  VAL657     -0.2715
    207  CB        31.8840   35.2770   29.9390 C.3   657  VAL657      0.0290
    208  CG1       31.1390   34.0870   29.3480 C.3   657  VAL657      0.0023
    209  CG2       30.9440   36.4580   30.1900 C.3   657  VAL657      0.0023
    210  N         33.2430   36.5050   32.9010 N.am  658  HIS658     -0.1973
    211  CA        34.1360   37.4370   33.5700 C.3   658  HIS658      0.1656
    212  C         35.1670   36.6860   34.3690 C.2   658  HIS658      0.2291
    213  O         34.8710   35.6330   34.9200 O.2   658  HIS658     -0.2864
    214  CB        33.3450   38.3300   34.5320 C.3   658  HIS658      0.0771
    215  CG        32.2100   39.0500   33.8820 C.ar  658  HIS658      0.0820
    216  ND1       30.9360   38.5330   33.8340 N.ar  658  HIS658     -0.2267
    217  CD2       32.1580   40.2470   33.2520 C.ar  658  HIS658      0.1154
    218  CE1       30.1470   39.3810   33.1960 C.ar  658  HIS658      0.1986
    219  NE2       30.8670   40.4280   32.8280 N.ar  658  HIS658     -0.2212
    220  N         40.4010   40.3650   37.8600 N.3   664  ARG664     -0.1231
    221  CA        40.1310   41.5470   37.0580 C.3   664  ARG664      0.1694
    222  C         41.0840   42.6490   37.5140 C.2   664  ARG664      0.2591
    223  O         41.7190   43.3130   36.6970 O.2   664  ARG664     -0.2718
    224  CB        38.6770   41.9940   37.1940 C.3   664  ARG664      0.0321
    225  CG        37.6870   40.9350   36.7820 C.3   664  ARG664      0.0489
    226  CD        36.2370   41.3910   36.7900 C.3   664  ARG664      0.2205
    227  NE        35.9340   42.2780   35.6770 N.pl3 664  ARG664     -0.0865
    228  CZ        34.7040   42.5680   35.2870 C.cat 664  ARG664      0.5346
    229  NH1       33.6690   42.0360   35.9280 N.pl3 664  ARG664      0.1354
    230  NH2       34.4980   43.3910   34.2690 N.pl3 664  ARG664      0.1354
    231  N         41.2080   42.8200   38.8250 N.am  665  ILE665     -0.1980
    232  CA        42.0930   43.8430   39.3660 C.3   665  ILE665      0.1595
    233  C         43.5660   43.5420   39.0380 C.2   665  ILE665      0.2287
    234  O         44.2410   44.3480   38.3990 O.2   665  ILE665     -0.2864
    235  CB        41.8960   43.9930   40.8790 C.3   665  ILE665      0.0276
    236  CG1       40.4160   44.2320   41.2010 C.3   665  ILE665      0.0022
    237  CG2       42.7180   45.1720   41.4050 C.3   665  ILE665      0.0022
    238  CD1       39.6160   42.9570   41.2960 C.3   665  ILE665      0.0001
    239  N         44.5030   43.5600   35.1740 N.3   668  THR668     -0.1218
    240  CA        44.4760   44.7840   34.3800 C.3   668  THR668      0.1862
    241  C         45.6100   45.6850   34.8070 C.2   668  THR668      0.2287
    242  O         46.2550   46.3190   33.9850 O.2   668  THR668     -0.2866
    243  CB        43.1510   45.5170   34.5660 C.3   668  THR668      0.1770
    244  OG1       42.8970   45.7200   35.9660 O.3   668  THR668     -0.2211
    245  CG2       42.0100   44.6490   34.0960 C.3   668  THR668      0.0375
@<TRIPOS>BOND
     1    69    68    1
     2    68    67   ar
     3    68    66   ar
     4    67    65   ar
     5    66    64   ar
     6   134   133    2
     7   133   132    1
     8    65    63   ar
     9    64    63   ar
    10    63    62    1
    11   132   131    1
    12   132   135    1
    13    60    61    2
    14    60    59    1
    15   135   136    1
    16    62    59    1
    17   125   124    2
    18    59    58    1
    19   137   136   ar
    20   137   139   ar
    21   136   138   ar
    22   124   123    1
    23    58    49   am
    24   139   140   ar
    25   138   140   ar
    26   115   114    2
    27    50    49    2
    28   123   126    1
    29   123   122    1
    30    49    48    1
    31   126   127    1
    32   141   142    1
    33   114   122   am
    34   114   113    1
    35    51    48    1
    36    51    52    1
    37   129   128   ar
    38    48    47    1
    39   113   112    1
    40   113   116    1
    41   127   128    1
    42   142   143    1
    43   142   145    1
    44   208   207    1
    45   149   147   ar
    46   128   130   ar
    47   143   144    2
    48   207   209    1
    49   207   204    1
    50    52    53   ar
    51    52    54   ar
    52   150   151    1
    53    47    44   am
    54   147   146    1
    55   147   148   ar
    56    53    55   ar
    57   119   121   ar
    58   119   117   ar
    59   146   145    1
    60   121   120   ar
    61   116   117    1
    62   117   118   ar
    63   108   107    2
    64    54    56   ar
    65   152   151    1
    66   152   153    2
    67   206   205    2
    68   120   118   ar
    69   204   205    1
    70   204   203    1
    71   151   154    1
    72    44    45    2
    73    44    43    1
    74    55    57   ar
    75   205   210   am
    76   107   106    1
    77    56    57   ar
    78   100    99    2
    79   154   155    1
    80   203   197   am
    81    46    43    1
    82    43    42    1
    83   219   218   ar
    84   219   217   ar
    85   210   211    1
    86   157   155   ar
    87   155   156   ar
    88    99    98    1
    89    99   105   am
    90   106   105    1
    91   106   109    1
    92   218   216   ar
    93   217   215   ar
    94   197   198    2
    95   197   196    1
    96   103   104    1
    97   103   102    1
    98   110   109    1
    99   211   212    1
   100   211   214    1
   101    98    97    1
   102    98   101    1
   103    42    36   am
   104   216   215   ar
   105   215   214    1
   106   242   241    2
   107   245   243    1
   108   109   111    1
   109   230   228    1
   110   196   195    1
   111   196   199    1
   112   212   213    2
   113   240   243    1
   114   240   241    1
   115   240   239    1
   116   243   244    1
   117   201   200   ar
   118    36    37    2
   119    36    35    1
   120   102   101    1
   121    40    39    2
   122    41    39   am
   123    39    38    1
   124   228   227    2
   125   228   229    1
   126    38    35    1
   127   199   200    1
   128   227   226    1
   129   200   202   ar
   130    35    34    1
   131    76    74    1
   132    96    95    2
   133   223   222    2
   134   167   168   ar
   135   167   165   ar
   136   225   226    1
   137   225   224    1
   138   168   166   ar
   139    77    75    1
   140   221   224    1
   141   221   222    1
   142   221   220    1
   143    95    94    1
   144    74    75    1
   145    74    71    1
   146   222   231   am
   147    89    90    1
   148   165   163   ar
   149    90    91    1
   150   166   164   ar
   151    91    92    2
   152    91    93   am
   153    70    71    1
   154    93    94    1
   155   234   233    2
   156    33    31    1
   157    71    72    1
   158    72    73    2
   159   163   164   ar
   160   163   162    1
   161   231   232    1
   162    84    86   ar
   163    84    83   ar
   164    86    88   ar
   165   192   190   ar
   166   192   194   ar
   167   189   190   ar
   168   189   187   ar
   169   233   232    1
   170   232   235    1
   171    22    20   ar
   172    22    21   ar
   173   190   188   ar
   174    81    80    2
   175   194   193   ar
   176    31    32    1
   177    31    30    2
   178   162   159    1
   179    82    83    1
   180    82    79    1
   181    83    85   ar
   182    88    87   ar
   183    20    18   ar
   184   187   186   ar
   185    21    19   ar
   186    80    79    1
   187    30    29    1
   188    10     9    1
   189    85    87   ar
   190    79    78    1
   191   159   160    1
   192   159   158    1
   193   188   186   ar
   194   188   191   ar
   195   235   236    1
   196   235   237    1
   197   193   191   ar
   198   179   178    1
   199    18    17   ar
   200   186   185    1
   201   161   160    2
   202   236   238    1
   203   160   169   am
   204    19    17   ar
   205   180   178    1
   206    11     9    1
   207     9     8    2
   208   178   175    1
   209    17    16    1
   210    29    28    1
   211   169   170    1
   212   185   182    1
   213    28    27    1
   214   170   173    1
   215   170   171    1
   216     8     7    1
   217    16    13    1
   218     7     6    1
   219   175   176    1
   220   175   174    1
   221   176   181   am
   222   176   177    2
   223   181   182    1
   224   182   183    1
   225   171   172    2
   226    27    24    1
   227    13    14    1
   228    13    12    1
   229    15    14    2
   230     6     5    1
   231    24    23    1
   232    24    25    1
   233     5     2    1
   234   183   184    2
   235    26    25    2
   236     2     1    1
   237     2     3    1
   238     3     4    2
