@<TRIPOS>MOLECULE
tmp/1r1iA03.pdb
 198 194 0 0 0
SMALL
GASTEIGER

@<TRIPOS>ATOM
      1  N         25.9710   59.4650   46.5560 N.3    49  ARG49      -0.1245
      2  CA        25.0020   58.3880   46.4760 C.3    49  ARG49       0.1563
      3  C         25.4790   57.1920   47.2620 C.2    49  ARG49       0.2260
      4  O         26.6750   56.9580   47.3720 O.2    49  ARG49      -0.2867
      5  CB        24.8390   57.9590   45.0180 C.3    49  ARG49       0.0307
      6  CG        24.0350   56.6860   44.7970 C.3    49  ARG49       0.0489
      7  CD        23.7030   56.4290   43.3310 C.3    49  ARG49       0.2205
      8  NE        24.7730   55.6600   42.7170 N.pl3  49  ARG49      -0.0865
      9  CZ        24.8460   55.3150   41.4390 C.cat  49  ARG49       0.5346
     10  NH1       23.9060   55.6640   40.5650 N.pl3  49  ARG49       0.1354
     11  NH2       25.8910   54.6180   41.0350 N.pl3  49  ARG49       0.1354
     12  N         24.1640   48.8920   44.9150 N.3    53  PHE53      -0.1241
     13  CA        25.1140   49.0370   43.8650 C.3    53  PHE53       0.1605
     14  C         26.3900   49.6650   44.4290 C.2    53  PHE53       0.2264
     15  O         27.4470   49.0830   44.3100 O.2    53  PHE53      -0.2867
     16  CB        24.5580   49.8270   42.7010 C.3    53  PHE53       0.0534
     17  CG        25.0920   49.3720   41.4230 C.ar   53  PHE53      -0.0203
     18  CD1       24.4120   48.4580   40.6670 C.ar   53  PHE53      -0.0042
     19  CD2       26.3330   49.7810   41.0210 C.ar   53  PHE53      -0.0042
     20  CE1       24.9410   47.9880   39.4840 C.ar   53  PHE53      -0.0003
     21  CE2       26.8740   49.3320   39.8530 C.ar   53  PHE53      -0.0003
     22  CZ        26.1820   48.4230   39.0790 C.ar   53  PHE53      -0.0000
     23  N         30.6250   48.3150   44.9460 N.3    57  ARG57      -0.1245
     24  CA        31.8320   49.0000   44.6030 C.3    57  ARG57       0.1563
     25  C         32.7170   49.2350   45.8230 C.2    57  ARG57       0.2260
     26  O         33.9450   49.1370   45.7180 O.2    57  ARG57      -0.2867
     27  CB        31.4950   50.3010   43.8840 C.3    57  ARG57       0.0307
     28  CG        30.5670   50.0750   42.7300 C.3    57  ARG57       0.0489
     29  CD        30.5110   51.2380   41.8390 C.3    57  ARG57       0.2205
     30  NE        29.8130   51.0460   40.5730 N.pl3  57  ARG57      -0.0865
     31  CZ        29.3710   52.0760   39.8720 C.cat  57  ARG57       0.5346
     32  NH1       29.6050   53.2730   40.3460 N.pl3  57  ARG57       0.1354
     33  NH2       28.7510   51.9170   38.7130 N.pl3  57  ARG57       0.1354
     34  N         30.1440   46.8360   36.6310 N.3   489  ASN489     -0.1225
     35  CA        29.1680   47.3280   35.7110 C.3   489  ASN489      0.1785
     36  C         29.0980   46.3100   34.6150 C.2   489  ASN489      0.2597
     37  O         29.8120   45.3250   34.6470 O.2   489  ASN489     -0.2718
     38  CB        29.6320   48.6630   35.1480 C.3   489  ASN489      0.1169
     39  CG        28.5120   49.6690   34.9780 C.2   489  ASN489      0.2627
     40  OD1       27.2980   49.3330   34.8520 O.2   489  ASN489     -0.2716
     41  ND2       28.9120   50.9320   34.9730 N.am  489  ASN489     -0.0877
     42  N         28.2820   46.5440   33.6080 N.am  490  ALA490     -0.1966
     43  CA        28.4690   45.8070   32.3680 C.3   490  ALA490      0.1728
     44  C         28.1330   46.7440   31.2560 C.2   490  ALA490      0.2616
     45  O         27.6190   47.8150   31.5160 O.2   490  ALA490     -0.2715
     46  CB        27.5950   44.5640   32.3210 C.3   490  ALA490      0.0334
     47  N         28.4530   46.3610   30.0280 N.am  491  PHE491     -0.1960
     48  CA        28.5140   47.3330   28.9370 C.3   491  PHE491      0.1771
     49  C         27.9650   46.7810   27.6160 C.2   491  PHE491      0.2619
     50  O         27.8150   45.5790   27.4470 O.2   491  PHE491     -0.2715
     51  CB        29.9670   47.8080   28.7310 C.3   491  PHE491      0.0574
     52  CG        30.6160   48.3110   29.9690 C.ar  491  PHE491     -0.0200
     53  CD1       30.4590   49.6170   30.3610 C.ar  491  PHE491     -0.0042
     54  CD2       31.3810   47.4820   30.7450 C.ar  491  PHE491     -0.0042
     55  CE1       31.0680   50.0920   31.5090 C.ar  491  PHE491     -0.0003
     56  CE2       31.9660   47.9380   31.8810 C.ar  491  PHE491     -0.0003
     57  CZ        31.8080   49.2510   32.2670 C.ar  491  PHE491     -0.0000
     58  N         27.7080   47.6810   26.6730 N.am  492  TYR492     -0.1974
     59  CA        27.5010   47.3280   25.2870 C.3   492  TYR492      0.1639
     60  C         28.1990   48.3250   24.3790 C.2   492  TYR492      0.2290
     61  O         28.0640   49.5170   24.6140 O.2   492  TYR492     -0.2864
     62  CB        26.0260   47.4140   24.9270 C.3   492  TYR492      0.0560
     63  CG        25.8760   47.2090   23.4420 C.ar  492  TYR492     -0.0198
     64  CD1       26.0410   45.9480   22.8980 C.ar  492  TYR492     -0.0009
     65  CD2       25.6650   48.2760   22.5690 C.ar  492  TYR492     -0.0009
     66  CE1       25.9290   45.7320   21.5420 C.ar  492  TYR492      0.0417
     67  CE2       25.5740   48.0560   21.1930 C.ar  492  TYR492      0.0417
     68  CZ        25.7100   46.7700   20.7000 C.ar  492  TYR492      0.1957
     69  OH        25.6630   46.4860   19.3650 O.3   492  TYR492     -0.2866
     70  N         30.7480   42.5950   38.1720 N.3   505  ILE505     -0.1245
     71  CA        29.3520   42.2350   38.3470 C.3   505  ILE505      0.1561
     72  C         29.1860   40.7170   38.5790 C.2   505  ILE505      0.2260
     73  O         28.2790   40.2490   39.2650 O.2   505  ILE505     -0.2867
     74  CB        28.5240   42.7590   37.1620 C.3   505  ILE505      0.0252
     75  CG1       27.0370   42.5950   37.4500 C.3   505  ILE505      0.0019
     76  CG2       28.8910   42.0780   35.8690 C.3   505  ILE505      0.0019
     77  CD1       26.2300   43.8760   37.1900 C.3   505  ILE505      0.0001
     78  N         23.6960   39.7290   41.5950 N.3   510  PHE510     -0.1241
     79  CA        23.2690   39.4240   40.2430 C.3   510  PHE510      0.1605
     80  C         23.4370   37.9130   39.9690 C.2   510  PHE510      0.2264
     81  O         22.5600   37.2930   39.3670 O.2   510  PHE510     -0.2867
     82  CB        24.0000   40.3020   39.2180 C.3   510  PHE510      0.0534
     83  CG        24.0860   41.7640   39.6130 C.ar  510  PHE510     -0.0203
     84  CD1       23.2370   42.7210   39.0620 C.ar  510  PHE510     -0.0042
     85  CD2       25.0350   42.1720   40.5340 C.ar  510  PHE510     -0.0042
     86  CE1       23.3420   44.0420   39.4390 C.ar  510  PHE510     -0.0003
     87  CE2       25.1250   43.4820   40.9140 C.ar  510  PHE510     -0.0003
     88  CZ        24.2980   44.4140   40.3610 C.ar  510  PHE510     -0.0000
     89  N         18.8340   40.0340   33.8560 N.3   526  MET526     -0.1230
     90  CA        18.1970   41.2470   33.3800 C.3   526  MET526      0.1702
     91  C         19.2950   42.1790   32.8960 C.2   526  MET526      0.2592
     92  O         19.0950   42.9720   31.9740 O.2   526  MET526     -0.2718
     93  CB        17.3220   41.9000   34.4800 C.3   526  MET526      0.0401
     94  CG        17.9200   43.1340   35.1220 C.3   526  MET526      0.0596
     95  SD        17.5690   44.6430   34.2280 S.3   526  MET526     -0.1393
     96  CE        18.3060   45.7670   35.2140 C.3   526  MET526      0.0692
     97  N         20.4700   42.0430   33.5010 N.am  527  VAL527     -0.1980
     98  CA        21.6350   42.8040   33.0800 C.3   527  VAL527      0.1595
     99  C         22.1380   42.3630   31.7040 C.2   527  VAL527      0.2287
    100  O         22.6000   43.1680   30.9250 O.2   527  VAL527     -0.2864
    101  CB        22.7760   42.7150   34.1160 C.3   527  VAL527      0.0276
    102  CG1       24.1120   42.6070   33.4240 C.3   527  VAL527      0.0022
    103  CG2       22.7500   43.9310   35.0180 C.3   527  VAL527      0.0022
    104  N         20.0310   43.8460   29.3550 N.3   530  HIS530     -0.1226
    105  CA        20.1670   45.2900   29.3630 C.3   530  HIS530      0.1752
    106  C         21.1320   45.5450   28.2610 C.2   530  HIS530      0.2595
    107  O         20.8140   46.2450   27.3060 O.2   530  HIS530     -0.2718
    108  CB        20.6650   45.8400   30.7040 C.3   530  HIS530      0.0759
    109  CG        21.0460   47.2980   30.6720 C.ar  530  HIS530      0.0818
    110  ND1       20.2000   48.2950   31.1070 N.ar  530  HIS530     -0.2268
    111  CD2       22.1950   47.9190   30.2860 C.ar  530  HIS530      0.1154
    112  CE1       20.8140   49.4630   31.0120 C.ar  530  HIS530      0.1986
    113  NE2       22.0210   49.2670   30.5050 N.ar  530  HIS530     -0.2212
    114  N         22.3020   44.9300   28.3380 N.am  531  GLU531     -0.1979
    115  CA        23.3170   45.2750   27.3490 C.3   531  GLU531      0.1602
    116  C         22.9160   44.9020   25.9370 C.2   531  GLU531      0.2287
    117  O         23.0350   45.7270   25.0290 O.2   531  GLU531     -0.2864
    118  CB        24.6480   44.6760   27.6940 C.3   531  GLU531      0.0415
    119  CG        24.9690   44.8170   29.1520 C.3   531  GLU531      0.1163
    120  CD        25.1100   46.2600   29.5810 C.2   531  GLU531      0.3649
    121  OE1       25.3340   47.1640   28.7070 O.co2 531  GLU531     -0.2457
    122  OE2       25.0070   46.4510   30.8130 O.co2 531  GLU531     -0.2457
    123  N         20.6020   47.2110   24.2110 N.3   534  HIS534     -0.1241
    124  CA        21.3320   48.4150   23.7790 C.3   534  HIS534      0.1621
    125  C         21.7910   48.2740   22.3300 C.2   534  HIS534      0.2264
    126  O         21.9640   49.2750   21.6170 O.2   534  HIS534     -0.2867
    127  CB        22.5830   48.6200   24.6440 C.3   534  HIS534      0.0745
    128  CG        22.3890   49.5380   25.8230 C.ar  534  HIS534      0.0817
    129  ND1       21.9740   50.8460   25.6970 N.ar  534  HIS534     -0.2268
    130  CD2       22.5820   49.3330   27.1500 C.ar  534  HIS534      0.1154
    131  CE1       21.9000   51.4010   26.8920 C.ar  534  HIS534      0.1986
    132  NE2       22.2870   50.5120   27.7900 N.ar  534  HIS534     -0.2212
    133  N         18.6620   54.1120   28.0780 N.3   593  GLU593     -0.1245
    134  CA        18.8120   53.2480   29.2340 C.3   593  GLU593      0.1567
    135  C         17.4260   52.8180   29.7830 C.2   593  GLU593      0.2260
    136  O         17.2470   51.7020   30.1850 O.2   593  GLU593     -0.2867
    137  CB        19.6290   53.9310   30.3560 C.3   593  GLU593      0.0388
    138  CG        21.1090   54.1790   30.0930 C.3   593  GLU593      0.1160
    139  CD        21.8830   52.9250   29.8020 C.2   593  GLU593      0.3649
    140  OE1       21.5640   51.8810   30.3860 O.co2 593  GLU593     -0.2457
    141  OE2       22.8120   52.9920   28.9750 O.co2 593  GLU593     -0.2457
    142  N         18.5570   45.3330   43.5980 N.3   639  VAL639     -0.1231
    143  CA        19.7110   45.8930   42.9090 C.3   639  VAL639      0.1692
    144  C         19.8260   47.4000   43.0830 C.2   639  VAL639      0.2592
    145  O         20.9260   47.9550   43.1110 O.2   639  VAL639     -0.2718
    146  CB        19.6390   45.6250   41.4120 C.3   639  VAL639      0.0266
    147  CG1       20.4810   46.6390   40.6430 C.3   639  VAL639      0.0020
    148  CG2       20.0770   44.2150   41.1250 C.3   639  VAL639      0.0020
    149  N         18.6960   48.0760   43.1730 N.am  640  TRP640     -0.1976
    150  CA        18.7190   49.5060   42.9910 C.3   640  TRP640      0.1640
    151  C         18.2720   50.2310   44.2610 C.2   640  TRP640      0.2290
    152  O         18.0030   51.4400   44.2160 O.2   640  TRP640     -0.2864
    153  CB        17.8220   49.8930   41.8220 C.3   640  TRP640      0.0576
    154  CG        18.2450   49.3840   40.4480 C.ar  640  TRP640      0.0006
    155  CD1       17.5760   48.4870   39.6790 C.ar  640  TRP640      0.0946
    156  CD2       19.3960   49.7830   39.6880 C.ar  640  TRP640      0.0152
    157  NE1       18.2400   48.2920   38.4920 N.ar  640  TRP640     -0.2442
    158  CE2       19.3510   49.0950   38.4630 C.ar  640  TRP640      0.0810
    159  CE3       20.4270   50.7060   39.8970 C.ar  640  TRP640      0.0012
    160  CZ2       20.3240   49.2570   37.4710 C.ar  640  TRP640      0.0191
    161  CZ3       21.3930   50.8560   38.9200 C.ar  640  TRP640      0.0001
    162  CH2       21.3260   50.1440   37.7160 C.ar  640  TRP640      0.0015
    163  N         23.3520   62.1860   34.3080 N.3   656  ASP656     -0.1225
    164  CA        23.2660   60.7440   34.1400 C.3   656  ASP656      0.1805
    165  C         22.4040   60.3490   32.9590 C.2   656  ASP656      0.2598
    166  O         21.4810   61.0460   32.5970 O.2   656  ASP656     -0.2718
    167  CB        22.7480   60.0470   35.3940 C.3   656  ASP656      0.1424
    168  CG        23.1340   58.5880   35.4220 C.2   656  ASP656      0.3668
    169  OD1       23.3750   58.0250   34.3340 O.co2 656  ASP656     -0.2456
    170  OD2       23.2310   57.9270   36.4620 O.co2 656  ASP656     -0.2456
    171  N         22.7270   59.2270   32.3520 N.am  657  VAL657     -0.1966
    172  CA        21.9250   58.7330   31.2570 C.3   657  VAL657      0.1727
    173  C         21.0870   57.5590   31.6560 C.2   657  VAL657      0.2616
    174  O         20.2140   57.1620   30.9060 O.2   657  VAL657     -0.2715
    175  CB        22.8000   58.3010   30.0750 C.3   657  VAL657      0.0290
    176  CG1       23.6440   59.4470   29.6700 C.3   657  VAL657      0.0023
    177  CG2       23.6210   57.0720   30.4320 C.3   657  VAL657      0.0023
    178  N         21.3400   57.0160   32.8360 N.am  658  HIS658     -0.1973
    179  CA        20.3000   56.3310   33.5830 C.3   658  HIS658      0.1656
    180  C         19.3430   57.3000   34.2740 C.2   658  HIS658      0.2291
    181  O         19.7360   58.3770   34.6680 O.2   658  HIS658     -0.2864
    182  CB        20.9180   55.3570   34.5600 C.3   658  HIS658      0.0771
    183  CG        22.1010   54.6400   33.9970 C.ar  658  HIS658      0.0820
    184  ND1       23.3440   55.2280   33.8980 N.ar  658  HIS658     -0.2267
    185  CD2       22.2310   53.3930   33.4920 C.ar  658  HIS658      0.1154
    186  CE1       24.1840   54.3810   33.3340 C.ar  658  HIS658      0.1986
    187  NE2       23.5350   53.2570   33.0820 N.ar  658  HIS658     -0.2212
    188  N         13.9610   53.3640   37.8320 N.3   664  ARG664     -0.1245
    189  CA        14.3070   52.3330   36.9010 C.3   664  ARG664      0.1563
    190  C         13.3510   51.2010   37.2060 C.2   664  ARG664      0.2260
    191  O         12.9820   50.4150   36.3450 O.2   664  ARG664     -0.2867
    192  CB        15.7440   51.9260   37.0940 C.3   664  ARG664      0.0307
    193  CG        16.6970   53.0670   36.9130 C.3   664  ARG664      0.0489
    194  CD        18.1270   52.6310   36.9590 C.3   664  ARG664      0.2205
    195  NE        18.4760   51.6510   35.9300 N.pl3 664  ARG664     -0.0865
    196  CZ        19.7100   51.4580   35.4730 C.cat 664  ARG664      0.5346
    197  NH1       20.7100   52.1920   35.9310 N.pl3 664  ARG664      0.1354
    198  NH2       19.9490   50.5410   34.5560 N.pl3 664  ARG664      0.1354
@<TRIPOS>BOND
     1    69    68    1
     2    68    67   ar
     3    68    66   ar
     4    67    65   ar
     5    66    64   ar
     6   126   125    2
     7   125   124    1
     8    65    63   ar
     9    64    63   ar
    10    63    62    1
    11   124   123    1
    12   124   127    1
    13    60    61    2
    14    60    59    1
    15   127   128    1
    16    62    59    1
    17   117   116    2
    18    59    58    1
    19   129   128   ar
    20   129   131   ar
    21   128   130   ar
    22   116   115    1
    23    58    49   am
    24   131   132   ar
    25   130   132   ar
    26   107   106    2
    27   115   118    1
    28   115   114    1
    29    50    49    2
    30    49    48    1
    31   118   119    1
    32   133   134    1
    33   106   114   am
    34   106   105    1
    35   121   120   ar
    36    51    48    1
    37    51    52    1
    38    48    47    1
    39   141   139   ar
    40   119   120    1
    41   134   135    1
    42   134   137    1
    43   104   105    1
    44   105   108    1
    45   120   122   ar
    46   176   175    1
    47   135   136    2
    48   139   138    1
    49   139   140   ar
    50    52    53   ar
    51    52    54   ar
    52    47    44   am
    53   175   177    1
    54   175   172    1
    55   138   137    1
    56   111   113   ar
    57   111   109   ar
    58    53    55   ar
    59   113   112   ar
    60   109   108    1
    61   109   110   ar
    62    54    56   ar
    63   174   173    2
    64   100    99    2
    65   112   110   ar
    66    44    45    2
    67    44    43    1
    68   172   173    1
    69   172   171    1
    70    55    57   ar
    71   173   178   am
    72    99    98    1
    73    56    57   ar
    74    92    91    2
    75    46    43    1
    76   171   165   am
    77    43    42    1
    78   166   165    2
    79   178   179    1
    80    91    90    1
    81    91    97   am
    82   165   164    1
    83    98    97    1
    84    98   101    1
    85   187   186   ar
    86   187   185   ar
    87   186   184   ar
    88    90    89    1
    89    90    93    1
    90   102   101    1
    91   185   183   ar
    92   179   180    1
    93   179   182    1
    94    42    36   am
    95   184   183   ar
    96   183   182    1
    97   101   103    1
    98   164   163    1
    99   164   167    1
   100    95    94    1
   101    95    96    1
   102   180   181    2
   103   169   168   ar
   104    93    94    1
   105   198   196    1
   106    36    37    2
   107    36    35    1
   108    40    39    2
   109    41    39   am
   110    39    38    1
   111    38    35    1
   112   167   168    1
   113   168   170   ar
   114   196   195    2
   115   196   197    1
   116    35    34    1
   117    76    74    1
   118   195   194    1
   119   191   190    2
   120   189   192    1
   121   189   190    1
   122   189   188    1
   123   193   194    1
   124   193   192    1
   125    74    75    1
   126    74    71    1
   127    77    75    1
   128   160   162   ar
   129   160   158   ar
   130   162   161   ar
   131    70    71    1
   132    71    72    1
   133   158   157   ar
   134   158   156   ar
   135   157   155   ar
   136    72    73    2
   137    33    31    1
   138   161   159   ar
   139    84    86   ar
   140    84    83   ar
   141    22    20   ar
   142    22    21   ar
   143    82    83    1
   144    82    79    1
   145    81    80    2
   146    86    88   ar
   147    20    18   ar
   148    83    85   ar
   149   155   154   ar
   150   156   159   ar
   151   156   154   ar
   152    21    19   ar
   153    31    32    1
   154    31    30    2
   155    80    79    1
   156    79    78    1
   157    88    87   ar
   158   154   153    1
   159    85    87   ar
   160    10     9    1
   161    30    29    1
   162   147   146    1
   163    18    17   ar
   164    19    17   ar
   165    11     9    1
   166   148   146    1
   167   146   143    1
   168    17    16    1
   169     9     8    2
   170   153   150    1
   171    29    28    1
   172    16    13    1
   173     8     7    1
   174    28    27    1
   175   143   144    1
   176   143   142    1
   177   150   149    1
   178   150   151    1
   179   144   145    2
   180   144   149   am
   181     7     6    1
   182    13    14    1
   183    13    12    1
   184    27    24    1
   185   152   151    2
   186    15    14    2
   187    24    23    1
   188    24    25    1
   189     6     5    1
   190     5     2    1
   191    26    25    2
   192     2     1    1
   193     2     3    1
   194     3     4    2
