@<TRIPOS>MOLECULE
tmp/1r1jA03.pdb
 198 194 0 0 0
SMALL
GASTEIGER

@<TRIPOS>ATOM
      1  N         28.1890   34.3250   46.2820 N.3    49  ARG49      -0.1245
      2  CA        29.2540   35.2880   46.0740 C.3    49  ARG49       0.1563
      3  C         28.8490   36.5770   46.7520 C.2    49  ARG49       0.2260
      4  O         27.6720   36.8760   46.8420 O.2    49  ARG49      -0.2867
      5  CB        29.4650   35.5480   44.5800 C.3    49  ARG49       0.0307
      6  CG        30.4890   36.6320   44.2910 C.3    49  ARG49       0.0489
      7  CD        30.5010   37.1060   42.8460 C.3    49  ARG49       0.2205
      8  NE        29.3140   37.8930   42.5480 N.pl3  49  ARG49      -0.0865
      9  CZ        28.9650   38.2920   41.3380 C.cat  49  ARG49       0.5346
     10  NH1       29.7210   37.9870   40.2890 N.pl3  49  ARG49       0.1354
     11  NH2       27.8600   39.0050   41.1770 N.pl3  49  ARG49       0.1354
     12  N         29.6630   44.7080   44.2900 N.3    53  PHE53      -0.1241
     13  CA        28.6120   44.6260   43.2940 C.3    53  PHE53       0.1605
     14  C         27.3650   43.9850   43.9120 C.2    53  PHE53       0.2264
     15  O         26.2600   44.5190   43.8120 O.2    53  PHE53      -0.2867
     16  CB        29.0820   43.8500   42.0550 C.3    53  PHE53       0.0534
     17  CG        28.5020   44.3620   40.7690 C.ar   53  PHE53      -0.0203
     18  CD1       29.2060   45.2470   39.9690 C.ar   53  PHE53      -0.0042
     19  CD2       27.2440   43.9650   40.3660 C.ar   53  PHE53      -0.0042
     20  CE1       28.6570   45.7290   38.7840 C.ar   53  PHE53      -0.0003
     21  CE2       26.6930   44.4330   39.1860 C.ar   53  PHE53      -0.0003
     22  CZ        27.4000   45.3180   38.3940 C.ar   53  PHE53      -0.0000
     23  N         23.4570   45.3330   44.8230 N.3    57  ARG57      -0.1245
     24  CA        22.2500   44.6550   44.3630 C.3    57  ARG57       0.1563
     25  C         21.2810   44.3670   45.5070 C.2    57  ARG57       0.2260
     26  O         20.0600   44.4290   45.3290 O.2    57  ARG57      -0.2867
     27  CB        22.6100   43.3670   43.6240 C.3    57  ARG57       0.0307
     28  CG        22.9200   43.5950   42.1530 C.3    57  ARG57       0.0489
     29  CD        23.7550   42.4970   41.5120 C.3    57  ARG57       0.2205
     30  NE        24.3810   42.9510   40.2760 N.pl3  57  ARG57      -0.0865
     31  CZ        24.9100   42.1470   39.3590 C.cat  57  ARG57       0.5346
     32  NH1       24.9060   40.8290   39.5300 N.pl3  57  ARG57       0.1354
     33  NH2       25.4490   42.6650   38.2640 N.pl3  57  ARG57       0.1354
     34  N         24.2120   47.1110   36.6510 N.3   489  ASN489     -0.1225
     35  CA        24.9430   46.5050   35.5540 C.3   489  ASN489      0.1785
     36  C         24.9740   47.4570   34.3840 C.2   489  ASN489      0.2597
     37  O         24.2350   48.4370   34.3620 O.2   489  ASN489     -0.2718
     38  CB        24.2920   45.1840   35.1310 C.3   489  ASN489      0.1169
     39  CG        25.3120   44.0950   34.8670 C.2   489  ASN489      0.2627
     40  OD1       26.4830   44.3790   34.6170 O.2   489  ASN489     -0.2716
     41  ND2       24.8770   42.8420   34.9300 N.am  489  ASN489     -0.0877
     42  N         25.8350   47.1620   33.4190 N.am  490  ALA490     -0.1966
     43  CA        25.8010   47.8130   32.1180 C.3   490  ALA490      0.1728
     44  C         26.0580   46.7650   31.0430 C.2   490  ALA490      0.2616
     45  O         26.4160   45.6330   31.3610 O.2   490  ALA490     -0.2715
     46  CB        26.8510   48.9040   32.0560 C.3   490  ALA490      0.0334
     47  N         25.8760   47.1410   29.7810 N.am  491  PHE491     -0.1960
     48  CA        25.5890   46.1780   28.7180 C.3   491  PHE491      0.1771
     49  C         26.0520   46.6970   27.3590 C.2   491  PHE491      0.2619
     50  O         26.0370   47.8960   27.1120 O.2   491  PHE491     -0.2715
     51  CB        24.0910   45.8850   28.6560 C.3   491  PHE491      0.0574
     52  CG        23.5740   45.1520   29.8490 C.ar  491  PHE491     -0.0200
     53  CD1       23.8030   43.7940   29.9940 C.ar  491  PHE491     -0.0042
     54  CD2       22.8730   45.8200   30.8360 C.ar  491  PHE491     -0.0042
     55  CE1       23.3340   43.1180   31.1030 C.ar  491  PHE491     -0.0003
     56  CE2       22.4060   45.1480   31.9450 C.ar  491  PHE491     -0.0003
     57  CZ        22.6380   43.7950   32.0790 C.ar  491  PHE491     -0.0000
     58  N         26.4380   45.7780   26.4790 N.am  492  TYR492     -0.1974
     59  CA        26.5850   46.0660   25.0560 C.3   492  TYR492      0.1639
     60  C         25.8350   45.0420   24.2010 C.2   492  TYR492      0.2290
     61  O         25.9320   43.8350   24.4260 O.2   492  TYR492     -0.2864
     62  CB        28.0590   46.0520   24.6490 C.3   492  TYR492      0.0560
     63  CG        28.2460   46.2370   23.1630 C.ar  492  TYR492     -0.0198
     64  CD1       28.0830   47.4850   22.5890 C.ar  492  TYR492     -0.0009
     65  CD2       28.5660   45.1650   22.3320 C.ar  492  TYR492     -0.0009
     66  CE1       28.2410   47.6710   21.2520 C.ar  492  TYR492      0.0417
     67  CE2       28.7210   45.3400   20.9780 C.ar  492  TYR492      0.0417
     68  CZ        28.5580   46.6020   20.4410 C.ar  492  TYR492      0.1957
     69  OH        28.6950   46.8310   19.0950 O.3   492  TYR492     -0.2866
     70  N         23.3780   51.2310   38.2220 N.3   505  ILE505     -0.1245
     71  CA        24.8260   51.3630   38.3260 C.3   505  ILE505      0.1561
     72  C         25.2850   52.8270   38.4130 C.2   505  ILE505      0.2260
     73  O         26.4380   53.1070   38.7280 O.2   505  ILE505     -0.2867
     74  CB        25.5050   50.6330   37.1470 C.3   505  ILE505      0.0252
     75  CG1       26.9420   50.2480   37.5100 C.3   505  ILE505      0.0019
     76  CG2       25.4640   51.4700   35.8810 C.3   505  ILE505      0.0019
     77  CD1       27.5340   49.1720   36.6060 C.3   505  ILE505      0.0001
     78  N         30.8200   53.8400   41.4730 N.3   510  PHE510     -0.1241
     79  CA        31.0870   54.1610   40.0730 C.3   510  PHE510      0.1605
     80  C         30.9280   55.6580   39.8260 C.2   510  PHE510      0.2264
     81  O         31.7740   56.2960   39.1970 O.2   510  PHE510     -0.2867
     82  CB        30.1500   53.3840   39.1480 C.3   510  PHE510      0.0534
     83  CG        30.1530   51.8960   39.3870 C.ar  510  PHE510     -0.0203
     84  CD1       31.0940   51.0690   38.7790 C.ar  510  PHE510     -0.0042
     85  CD2       29.2140   51.3240   40.2240 C.ar  510  PHE510     -0.0042
     86  CE1       31.0860   49.7100   39.0050 C.ar  510  PHE510     -0.0003
     87  CE2       29.1980   49.9630   40.4520 C.ar  510  PHE510     -0.0003
     88  CZ        30.1350   49.1530   39.8410 C.ar  510  PHE510     -0.0000
     89  N         35.4150   53.6380   33.5610 N.3   526  MET526     -0.1230
     90  CA        36.0220   52.4310   33.0200 C.3   526  MET526      0.1702
     91  C         34.9310   51.4220   32.6640 C.2   526  MET526      0.2592
     92  O         35.1280   50.5590   31.8040 O.2   526  MET526     -0.2718
     93  CB        37.0570   51.8460   33.9900 C.3   526  MET526      0.0401
     94  CG        36.5270   50.8230   34.9470 C.3   526  MET526      0.0596
     95  SD        36.4170   49.1790   34.2520 S.3   526  MET526     -0.1393
     96  CE        35.0080   48.6440   35.0130 C.3   526  MET526      0.0692
     97  N         33.7670   51.5640   33.2930 N.am  527  VAL527     -0.1980
     98  CA        32.5890   50.7910   32.8900 C.3   527  VAL527      0.1595
     99  C         32.1420   51.1800   31.4760 C.2   527  VAL527      0.2287
    100  O         31.7420   50.3280   30.6850 O.2   527  VAL527     -0.2864
    101  CB        31.4240   50.9870   33.8770 C.3   527  VAL527      0.0276
    102  CG1       30.1590   50.2950   33.3760 C.3   527  VAL527      0.0022
    103  CG2       31.8110   50.4600   35.2460 C.3   527  VAL527      0.0022
    104  N         34.6420   49.6970   28.9930 N.3   530  HIS530     -0.1226
    105  CA        34.3100   48.2780   28.9390 C.3   530  HIS530      0.1752
    106  C         33.2380   48.0580   27.8850 C.2   530  HIS530      0.2595
    107  O         33.4340   47.2910   26.9400 O.2   530  HIS530     -0.2718
    108  CB        33.8330   47.7950   30.3220 C.3   530  HIS530      0.0759
    109  CG        33.4830   46.3400   30.3820 C.ar  530  HIS530      0.0818
    110  ND1       34.3710   45.3770   30.8100 N.ar  530  HIS530     -0.2268
    111  CD2       32.3260   45.6880   30.1060 C.ar  530  HIS530      0.1154
    112  CE1       33.7860   44.1920   30.7700 C.ar  530  HIS530      0.1986
    113  NE2       32.5430   44.3520   30.3500 N.ar  530  HIS530     -0.2212
    114  N         32.1030   48.7290   28.0430 N.am  531  GLU531     -0.1979
    115  CA        30.9380   48.4320   27.2130 C.3   531  GLU531      0.1602
    116  C         31.1830   48.8170   25.7510 C.2   531  GLU531      0.2287
    117  O         30.7280   48.1360   24.8350 O.2   531  GLU531     -0.2864
    118  CB        29.6970   49.1520   27.7400 C.3   531  GLU531      0.0415
    119  CG        29.3340   48.8010   29.1690 C.3   531  GLU531      0.1163
    120  CD        29.1000   47.3160   29.3820 C.2   531  GLU531      0.3649
    121  OE1       28.7690   46.5940   28.4040 O.co2 531  GLU531     -0.2457
    122  OE2       29.2260   46.8790   30.5490 O.co2 531  GLU531     -0.2457
    123  N         33.4270   46.3480   23.9620 N.3   534  HIS534     -0.1241
    124  CA        32.7570   45.1080   23.5750 C.3   534  HIS534      0.1621
    125  C         32.3870   45.1440   22.1130 C.2   534  HIS534      0.2264
    126  O         32.2200   44.1020   21.4780 O.2   534  HIS534     -0.2867
    127  CB        31.4910   44.8770   24.3920 C.3   534  HIS534      0.0745
    128  CG        31.7200   44.0870   25.6410 C.ar  534  HIS534      0.0817
    129  ND1       32.3350   42.8560   25.6390 N.ar  534  HIS534     -0.2268
    130  CD2       31.4200   44.3560   26.9340 C.ar  534  HIS534      0.1154
    131  CE1       32.4010   42.3980   26.8770 C.ar  534  HIS534      0.1986
    132  NE2       31.8500   43.2900   27.6810 N.ar  534  HIS534     -0.2212
    133  N         35.5060   39.6260   27.7960 N.3   593  GLU593     -0.1245
    134  CA        35.2970   40.4600   28.9680 C.3   593  GLU593      0.1567
    135  C         36.6330   40.9860   29.4770 C.2   593  GLU593      0.2260
    136  O         36.7240   42.1260   29.9110 O.2   593  GLU593     -0.2867
    137  CB        34.5500   39.6920   30.0590 C.3   593  GLU593      0.0388
    138  CG        33.1210   39.3180   29.6670 C.3   593  GLU593      0.1160
    139  CD        32.1760   40.5090   29.6560 C.2   593  GLU593      0.3649
    140  OE1       32.5290   41.5740   30.1930 O.co2 593  GLU593     -0.2457
    141  OE2       31.0660   40.3780   29.1120 O.co2 593  GLU593     -0.2457
    142  N         35.6840   48.4460   43.1620 N.3   639  VAL639     -0.1231
    143  CA        34.5430   47.9150   42.4350 C.3   639  VAL639      0.1692
    144  C         34.4490   46.4060   42.5990 C.2   639  VAL639      0.2592
    145  O         33.3660   45.8380   42.5160 O.2   639  VAL639     -0.2718
    146  CB        34.6300   48.2300   40.9330 C.3   639  VAL639      0.0266
    147  CG1       33.6830   47.3390   40.1460 C.3   639  VAL639      0.0020
    148  CG2       34.3210   49.6830   40.6720 C.3   639  VAL639      0.0020
    149  N         35.5820   45.7480   42.8200 N.am  640  TRP640     -0.1976
    150  CA        35.6260   44.3010   42.6780 C.3   640  TRP640      0.1640
    151  C         35.9900   43.5910   43.9760 C.2   640  TRP640      0.2290
    152  O         36.3550   42.4190   43.9520 O.2   640  TRP640     -0.2864
    153  CB        36.6080   43.9030   41.5700 C.3   640  TRP640      0.0576
    154  CG        36.1290   44.2640   40.1950 C.ar  640  TRP640      0.0006
    155  CD1       36.7400   45.0910   39.3040 C.ar  640  TRP640      0.0946
    156  CD2       34.9310   43.8110   39.5620 C.ar  640  TRP640      0.0152
    157  NE1       35.9990   45.1750   38.1490 N.ar  640  TRP640     -0.2442
    158  CE2       34.8780   44.4010   38.2850 C.ar  640  TRP640      0.0810
    159  CE3       33.8920   42.9610   39.9470 C.ar  640  TRP640      0.0012
    160  CZ2       33.8280   44.1740   37.3970 C.ar  640  TRP640      0.0191
    161  CZ3       32.8540   42.7310   39.0640 C.ar  640  TRP640      0.0001
    162  CH2       32.8310   43.3320   37.8030 C.ar  640  TRP640      0.0015
    163  N         30.8230   31.6090   33.7810 N.3   656  ASP656     -0.1225
    164  CA        30.8900   33.0610   33.7350 C.3   656  ASP656      0.1805
    165  C         31.8620   33.5020   32.6530 C.2   656  ASP656      0.2598
    166  O         33.0120   33.0610   32.6370 O.2   656  ASP656     -0.2718
    167  CB        31.3400   33.6180   35.0890 C.3   656  ASP656      0.1424
    168  CG        31.0190   35.0930   35.2450 C.2   656  ASP656      0.3668
    169  OD1       30.6610   35.7330   34.2350 O.co2 656  ASP656     -0.2456
    170  OD2       31.0900   35.6960   36.3350 O.co2 656  ASP656     -0.2456
    171  N         31.4060   34.3680   31.7510 N.am  657  VAL657     -0.1966
    172  CA        32.2780   34.8970   30.7150 C.3   657  VAL657      0.1727
    173  C         33.2020   35.9770   31.2780 C.2   657  VAL657      0.2616
    174  O         34.1520   36.3830   30.6120 O.2   657  VAL657     -0.2715
    175  CB        31.4880   35.4700   29.5140 C.3   657  VAL657      0.0290
    176  CG1       30.7530   34.3480   28.7630 C.3   657  VAL657      0.0023
    177  CG2       30.5240   36.5570   29.9670 C.3   657  VAL657      0.0023
    178  N         32.9260   36.4210   32.5040 N.am  658  HIS658     -0.1973
    179  CA        33.8380   37.3010   33.2400 C.3   658  HIS658      0.1656
    180  C         34.8900   36.5130   34.0130 C.2   658  HIS658      0.2291
    181  O         34.5920   35.4750   34.5850 O.2   658  HIS658     -0.2864
    182  CB        33.0620   38.1820   34.2220 C.3   658  HIS658      0.0771
    183  CG        31.9580   38.9710   33.5920 C.ar  658  HIS658      0.0820
    184  ND1       30.6450   38.5600   33.6170 N.ar  658  HIS658     -0.2267
    185  CD2       31.9700   40.1530   32.9310 C.ar  658  HIS658      0.1154
    186  CE1       29.8960   39.4470   32.9860 C.ar  658  HIS658      0.1986
    187  NE2       30.6750   40.4250   32.5610 N.ar  658  HIS658     -0.2212
    188  N         40.4150   40.3180   37.5330 N.3   664  ARG664     -0.1245
    189  CA        40.1260   41.4030   36.6250 C.3   664  ARG664      0.1563
    190  C         41.0450   42.5400   37.0220 C.2   664  ARG664      0.2260
    191  O         41.7230   43.1240   36.1850 O.2   664  ARG664     -0.2867
    192  CB        38.6650   41.7940   36.7160 C.3   664  ARG664      0.0307
    193  CG        37.7160   40.6700   36.3360 C.3   664  ARG664      0.0489
    194  CD        36.2550   41.0300   36.4930 C.3   664  ARG664      0.2205
    195  NE        35.8470   42.0090   35.5000 N.pl3 664  ARG664     -0.0865
    196  CZ        34.6010   42.1710   35.0830 C.cat 664  ARG664      0.5346
    197  NH1       33.6270   41.4230   35.5800 N.pl3 664  ARG664      0.1354
    198  NH2       34.3260   43.0840   34.1650 N.pl3 664  ARG664      0.1354
@<TRIPOS>BOND
     1    69    68    1
     2    68    67   ar
     3    68    66   ar
     4    67    65   ar
     5    66    64   ar
     6   126   125    2
     7   125   124    1
     8    65    63   ar
     9    64    63   ar
    10    63    62    1
    11   124   123    1
    12   124   127    1
    13    60    61    2
    14    60    59    1
    15   127   128    1
    16    62    59    1
    17   117   116    2
    18    59    58    1
    19   129   128   ar
    20   129   131   ar
    21   128   130   ar
    22   116   115    1
    23    58    49   am
    24   131   132   ar
    25   130   132   ar
    26   107   106    2
    27    50    49    2
    28   115   118    1
    29   115   114    1
    30    49    48    1
    31   118   119    1
    32   133   134    1
    33   106   114   am
    34   106   105    1
    35   121   120   ar
    36    51    48    1
    37    51    52    1
    38    48    47    1
    39   176   175    1
    40   105   104    1
    41   105   108    1
    42   134   135    1
    43   134   137    1
    44   141   139   ar
    45   119   120    1
    46   120   122   ar
    47   135   136    2
    48   175   177    1
    49   175   172    1
    50   139   138    1
    51   139   140   ar
    52   138   137    1
    53    47    44   am
    54    52    53   ar
    55    52    54   ar
    56    53    55   ar
    57   111   113   ar
    58   111   109   ar
    59   108   109    1
    60   113   112   ar
    61   109   110   ar
    62   174   173    2
    63   100    99    2
    64   172   173    1
    65   172   171    1
    66   112   110   ar
    67    54    56   ar
    68    44    45    2
    69    44    43    1
    70    55    57   ar
    71   173   178   am
    72    99    98    1
    73   171   165   am
    74    92    91    2
    75    56    57   ar
    76    46    43    1
    77    43    42    1
    78   178   179    1
    79   187   185   ar
    80   187   186   ar
    81   166   165    2
    82   165   164    1
    83    91    90    1
    84    91    97   am
    85    98    97    1
    86    98   101    1
    87   185   183   ar
    88   186   184   ar
    89    90    89    1
    90    90    93    1
    91   179   180    1
    92   179   182    1
    93   102   101    1
    94    42    36   am
    95   183   184   ar
    96   183   182    1
    97   164   163    1
    98   164   167    1
    99   101   103    1
   100    93    94    1
   101   180   181    2
   102   198   196    1
   103   169   168   ar
   104    95    94    1
   105    95    96    1
   106    37    36    2
   107    36    35    1
   108    40    39    2
   109    39    41   am
   110    39    38    1
   111   196   195    2
   112   196   197    1
   113   167   168    1
   114    38    35    1
   115   168   170   ar
   116   195   194    1
   117    35    34    1
   118    76    74    1
   119   191   190    2
   120   193   194    1
   121   193   192    1
   122    77    75    1
   123   189   192    1
   124   189   190    1
   125   189   188    1
   126    74    75    1
   127    74    71    1
   128   160   162   ar
   129   160   158   ar
   130   162   161   ar
   131   157   158   ar
   132   157   155   ar
   133    70    71    1
   134    33    31    1
   135   158   156   ar
   136    71    72    1
   137    22    20   ar
   138    22    21   ar
   139    72    73    2
   140    84    86   ar
   141    84    83   ar
   142    20    18   ar
   143    86    88   ar
   144   161   159   ar
   145    82    83    1
   146    82    79    1
   147    21    19   ar
   148    81    80    2
   149   155   154   ar
   150    31    32    1
   151    31    30    2
   152    83    85   ar
   153   156   159   ar
   154   156   154   ar
   155    80    79    1
   156    88    87   ar
   157    18    17   ar
   158    79    78    1
   159   147   146    1
   160   154   153    1
   161    85    87   ar
   162    30    29    1
   163    10     9    1
   164    19    17   ar
   165   148   146    1
   166    17    16    1
   167   146   143    1
   168    11     9    1
   169     9     8    2
   170    29    28    1
   171   153   150    1
   172    16    13    1
   173    28    27    1
   174   143   144    1
   175   143   142    1
   176   145   144    2
   177     8     7    1
   178   144   149   am
   179   150   149    1
   180   150   151    1
   181     7     6    1
   182    13    14    1
   183    13    12    1
   184    27    24    1
   185    15    14    2
   186   152   151    2
   187     6     5    1
   188    24    23    1
   189    24    25    1
   190     5     2    1
   191    26    25    2
   192     2     1    1
   193     2     3    1
   194     3     4    2
