@<TRIPOS>MOLECULE
tmp/1r1lB01.pdb
 185 178 0 0 0
SMALL
GASTEIGER

@<TRIPOS>ATOM
      1  N         38.4290    5.7430    6.0540 N.3    71  ALA71      -0.1231
      2  CA        38.7780    6.5980    7.1760 C.3    71  ALA71       0.1694
      3  C         40.1440    6.2630    7.7240 C.2    71  ALA71       0.2592
      4  O         40.9940    7.1410    7.8720 O.2    71  ALA71      -0.2718
      5  CB        37.7450    6.4760    8.2690 C.3    71  ALA71       0.0304
      6  N         40.3590    4.9910    8.0320 N.am   72  PHE72      -0.1976
      7  CA        41.6390    4.5740    8.5840 C.3    72  PHE72       0.1639
      8  C         42.7760    4.6740    7.5720 C.2    72  PHE72       0.2290
      9  O         43.9210    4.8920    7.9440 O.2    72  PHE72      -0.2864
     10  CB        41.5270    3.1590    9.1650 C.3    72  PHE72       0.0560
     11  CG        40.7680    3.1090   10.4600 C.ar   72  PHE72      -0.0200
     12  CD1       39.3810    3.2030   10.4750 C.ar   72  PHE72      -0.0042
     13  CD2       41.4410    3.0360   11.6740 C.ar   72  PHE72      -0.0042
     14  CE1       38.6720    3.2310   11.6900 C.ar   72  PHE72      -0.0003
     15  CE2       40.7440    3.0630   12.8900 C.ar   72  PHE72      -0.0003
     16  CZ        39.3600    3.1610   12.8970 C.ar   72  PHE72      -0.0000
     17  N         43.8550    8.0110    7.9390 N.3    75  THR75      -0.1218
     18  CA        44.5990    8.1970    9.1680 C.3    75  THR75       0.1862
     19  C         46.0070    7.6490    9.0340 C.2    75  THR75       0.2287
     20  O         46.9430    8.1610    9.6490 O.2    75  THR75      -0.2866
     21  CB        43.8850    7.5030   10.3200 C.3    75  THR75       0.1770
     22  OG1       42.5650    8.0430   10.4270 O.3    75  THR75      -0.2211
     23  CG2       44.6250    7.7160   11.6220 C.3    75  THR75       0.0375
     24  N         28.5370   11.8660   15.9190 N.3   187  ILE187     -0.1245
     25  CA        29.4100   12.0520   17.0670 C.3   187  ILE187      0.1561
     26  C         28.6290   12.2450   18.3580 C.2   187  ILE187      0.2260
     27  O         27.8650   13.2000   18.4950 O.2   187  ILE187     -0.2867
     28  CB        30.3290   13.2700   16.8550 C.3   187  ILE187      0.0252
     29  CG1       31.1900   13.0410   15.6120 C.3   187  ILE187      0.0019
     30  CG2       31.1960   13.4970   18.0870 C.3   187  ILE187      0.0019
     31  CD1       32.1110   14.1850   15.2820 C.3   187  ILE187      0.0001
     32  N         31.6770   12.5760   23.5770 N.3   191  ALA191     -0.1231
     33  CA        32.8930   12.7600   22.7900 C.3   191  ALA191      0.1694
     34  C         33.0760   14.2300   22.4530 C.2   191  ALA191      0.2591
     35  O         32.1950   15.0510   22.7090 O.2   191  ALA191     -0.2718
     36  CB        32.8200   11.9400   21.5150 C.3   191  ALA191      0.0304
     37  N         34.2220   14.5600   21.8730 N.am  192  ILE192     -0.1980
     38  CA        34.5170   15.9420   21.5120 C.3   192  ILE192      0.1595
     39  C         34.5100   16.8730   22.7330 C.2   192  ILE192      0.2287
     40  O         33.4460   17.2390   23.2440 O.2   192  ILE192     -0.2864
     41  CB        33.5100   16.4850   20.4630 C.3   192  ILE192      0.0276
     42  CG1       33.6660   15.7230   19.1400 C.3   192  ILE192      0.0022
     43  CG2       33.7390   17.9690   20.2350 C.3   192  ILE192      0.0022
     44  CD1       32.8840   16.3240   17.9750 C.3   192  ILE192      0.0001
     45  N         40.0750   19.0920   24.7790 N.3   195  LEU195     -0.1231
     46  CA        41.3470   18.4770   24.4060 C.3   195  LEU195      0.1693
     47  C         41.2980   17.8310   23.0250 C.2   195  LEU195      0.2593
     48  O         42.2950   17.2770   22.5550 O.2   195  LEU195     -0.2718
     49  CB        41.7510   17.4200   25.4370 C.3   195  LEU195      0.0284
     50  CG        42.2050   17.8620   26.8290 C.3   195  LEU195      0.0019
     51  CD1       41.1670   18.7610   27.4860 C.3   195  LEU195      0.0001
     52  CD2       42.4460   16.6150   27.6650 C.3   195  LEU195      0.0001
     53  N         40.1340   17.8930   22.3870 N.am  196  THR196     -0.1939
     54  CA        39.9560   17.3220   21.0610 C.3   196  THR196      0.2028
     55  C         40.6400   18.1940   20.0150 C.2   196  THR196      0.2642
     56  O         40.3610   19.3850   19.9130 O.2   196  THR196     -0.2714
     57  CB        38.4630   17.1970   20.7120 C.3   196  THR196      0.1808
     58  OG1       37.8540   16.2120   21.5580 O.3   196  THR196     -0.2208
     59  CG2       38.2900   16.7960   19.2520 C.3   196  THR196      0.0379
     60  N         41.5300   17.5980   19.2320 N.am  197  VAL197     -0.1963
     61  CA        42.2450   18.3430   18.2120 C.3   197  VAL197      0.1727
     62  C         41.8530   17.9600   16.7870 C.2   197  VAL197      0.2616
     63  O         41.8760   18.7980   15.8740 O.2   197  VAL197     -0.2715
     64  CB        43.7610   18.1620   18.3690 C.3   197  VAL197      0.0290
     65  CG1       44.1940   18.6600   19.7320 C.3   197  VAL197      0.0023
     66  CG2       44.1390   16.7130   18.1920 C.3   197  VAL197      0.0023
     67  N         41.4880   16.6980   16.5880 N.am  198  LEU198     -0.1963
     68  CA        41.1120   16.2530   15.2560 C.3   198  LEU198      0.1728
     69  C         39.9280   15.3030   15.2110 C.2   198  LEU198      0.2616
     70  O         39.7970   14.4140   16.0420 O.2   198  LEU198     -0.2715
     71  CB        42.3110   15.5880   14.5680 C.3   198  LEU198      0.0311
     72  CG        42.0950   15.1470   13.1170 C.3   198  LEU198      0.0022
     73  CD1       41.6810   16.3580   12.2590 C.3   198  LEU198      0.0001
     74  CD2       43.3720   14.5090   12.5880 C.3   198  LEU198      0.0001
     75  N         39.0580   15.5230   14.2330 N.am  199  VAL199     -0.1963
     76  CA        37.8970   14.6710   14.0000 C.3   199  VAL199      0.1727
     77  C         37.8820   14.3890   12.4910 C.2   199  VAL199      0.2616
     78  O         37.5020   15.2450   11.7000 O.2   199  VAL199     -0.2715
     79  CB        36.5690   15.3590   14.4030 C.3   199  VAL199      0.0290
     80  CG1       35.3980   14.4810   14.0120 C.3   199  VAL199      0.0023
     81  CG2       36.5350   15.6030   15.9000 C.3   199  VAL199      0.0023
     82  N         38.3450   13.1970   12.1100 N.am  200  LEU200     -0.1963
     83  CA        38.3950   12.7570   10.7110 C.3   200  LEU200      0.1728
     84  C         37.0710   12.0550   10.4160 C.2   200  LEU200      0.2616
     85  O         36.6090   11.2220   11.1980 O.2   200  LEU200     -0.2715
     86  CB        39.5830   11.8110   10.5160 C.3   200  LEU200      0.0311
     87  CG        39.9450   11.2570    9.1410 C.3   200  LEU200      0.0022
     88  CD1       41.3590   10.7200    9.1960 C.3   200  LEU200      0.0001
     89  CD2       38.9770   10.1590    8.7290 C.3   200  LEU200      0.0001
     90  N         36.4530   12.4010    9.2920 N.am  201  VAL201     -0.1977
     91  CA        35.1510   11.8330    8.9550 C.3   201  VAL201      0.1596
     92  C         34.9370   11.4710    7.4950 C.2   201  VAL201      0.2287
     93  O         35.2910   12.2340    6.5980 O.2   201  VAL201     -0.2864
     94  CB        34.0090   12.8100    9.3770 C.3   201  VAL201      0.0276
     95  CG1       32.6950   12.4100    8.7260 C.3   201  VAL201      0.0022
     96  CG2       33.8620   12.8180   10.8900 C.3   201  VAL201      0.0022
     97  N         33.9970    1.3070   16.9690 N.3   316  LEU316     -0.1245
     98  CA        34.8700    0.3420   16.3190 C.3   316  LEU316      0.1561
     99  C         36.1070   -0.0310   17.1330 C.2   316  LEU316      0.2260
    100  O         36.7800   -1.0210   16.8300 O.2   316  LEU316     -0.2867
    101  CB        35.3160    0.9050   14.9680 C.3   316  LEU316      0.0270
    102  CG        34.2190    1.3630   14.0120 C.3   316  LEU316      0.0019
    103  CD1       34.8080    2.2730   12.9590 C.3   316  LEU316      0.0001
    104  CD2       33.5650    0.1520   13.3890 C.3   316  LEU316      0.0001
    105  N         47.4530    2.4140   17.7050 N.3   328  LEU328     -0.1245
    106  CA        46.6710    3.5840   17.3280 C.3   328  LEU328      0.1561
    107  C         45.8560    4.1430   18.4900 C.2   328  LEU328      0.2260
    108  O         45.7010    5.3510   18.6180 O.2   328  LEU328     -0.2867
    109  CB        45.7170    3.2310   16.1800 C.3   328  LEU328      0.0270
    110  CG        44.9870    4.3860   15.4810 C.3   328  LEU328      0.0019
    111  CD1       45.9700    5.1800   14.6130 C.3   328  LEU328      0.0001
    112  CD2       43.8680    3.8380   14.6240 C.3   328  LEU328      0.0001
    113  N         51.7110    8.8600   15.3240 N.3   336  LEU336     -0.1245
    114  CA        51.0610    9.6200   14.2600 C.3   336  LEU336      0.1561
    115  C         51.7560   10.9690   14.0750 C.2   336  LEU336      0.2260
    116  O         51.1030   12.0080   13.9940 O.2   336  LEU336     -0.2867
    117  CB        49.5800    9.8430   14.6220 C.3   336  LEU336      0.0270
    118  CG        48.7150    8.5770   14.7280 C.3   336  LEU336      0.0019
    119  CD1       47.4150    8.8890   15.4180 C.3   336  LEU336      0.0001
    120  CD2       48.4720    8.0080   13.3390 C.3   336  LEU336      0.0001
    121  N         50.7940   13.9410   11.2500 N.3   339  ILE339     -0.1245
    122  CA        49.5390   14.6790   11.1950 C.3   339  ILE339      0.1561
    123  C         49.6250   16.1120   11.7000 C.2   339  ILE339      0.2260
    124  O         49.3000   17.0490   10.9760 O.2   339  ILE339     -0.2867
    125  CB        48.4270   13.9540   11.9770 C.3   339  ILE339      0.0252
    126  CG1       48.2710   12.5300   11.4520 C.3   339  ILE339      0.0019
    127  CG2       47.1110   14.7190   11.8380 C.3   339  ILE339      0.0019
    128  CD1       47.1510   11.7580   12.1110 C.3   339  ILE339      0.0001
    129  N         50.1690   11.8290   19.4510 N.3   347  LEU347     -0.1231
    130  CA        48.7480   11.9400   19.1560 C.3   347  LEU347      0.1693
    131  C         48.1700   10.5460   18.9380 C.2   347  LEU347      0.2592
    132  O         48.7680    9.7220   18.2440 O.2   347  LEU347     -0.2718
    133  CB        48.5820   12.7990   17.8980 C.3   347  LEU347      0.0284
    134  CG        47.2170   12.9960   17.2380 C.3   347  LEU347      0.0019
    135  CD1       46.2830   13.7460   18.1640 C.3   347  LEU347      0.0001
    136  CD2       47.4080   13.7630   15.9320 C.3   347  LEU347      0.0001
    137  N         47.0140   10.2720   19.5350 N.am  348  TYR348     -0.1962
    138  CA        46.3850    8.9600   19.3730 C.3   348  TYR348      0.1771
    139  C         44.8790    9.0850   19.1600 C.2   348  TYR348      0.2619
    140  O         44.2950   10.1420   19.3860 O.2   348  TYR348     -0.2715
    141  CB        46.6780    8.0620   20.5910 C.3   348  TYR348      0.0574
    142  CG        45.9960    8.4980   21.8670 C.ar  348  TYR348     -0.0198
    143  CD1       44.7790    7.9390   22.2620 C.ar  348  TYR348     -0.0009
    144  CD2       46.5340    9.5170   22.6500 C.ar  348  TYR348     -0.0009
    145  CE1       44.1150    8.3920   23.4020 C.ar  348  TYR348      0.0417
    146  CE2       45.8770    9.9770   23.7910 C.ar  348  TYR348      0.0417
    147  CZ        44.6710    9.4140   24.1610 C.ar  348  TYR348      0.1957
    148  OH        44.0250    9.8850   25.2820 O.3   348  TYR348     -0.2866
    149  N         44.2580    8.0020   18.7080 N.am  349  VAL349     -0.1963
    150  CA        42.8270    8.0050   18.4770 C.3   349  VAL349      0.1727
    151  C         42.1270    7.6570   19.7780 C.2   349  VAL349      0.2617
    152  O         42.3360    6.5850   20.3400 O.2   349  VAL349     -0.2715
    153  CB        42.4370    6.9820   17.3950 C.3   349  VAL349      0.0290
    154  CG1       40.9310    7.0070   17.1660 C.3   349  VAL349      0.0023
    155  CG2       43.1640    7.3040   16.1040 C.3   349  VAL349      0.0023
    156  N         41.3050    8.5780   20.2580 N.am  350  SER350     -0.1936
    157  CA        40.5550    8.3880   21.4900 C.3   350  SER350      0.2055
    158  C         39.3360    7.4690   21.2850 C.2   350  SER350      0.2643
    159  O         39.0080    6.6540   22.1450 O.2   350  SER350     -0.2714
    160  CB        40.0980    9.7500   22.0090 C.3   350  SER350      0.2130
    161  OG        39.3520    9.6150   23.1990 O.3   350  SER350     -0.2179
    162  N         38.6740    7.6030   20.1400 N.am  351  ASP351     -0.1957
    163  CA        37.4930    6.8060   19.8190 C.3   351  ASP351      0.1840
    164  C         37.2590    6.8140   18.3160 C.2   351  ASP351      0.2622
    165  O         37.7720    7.6770   17.6080 O.2   351  ASP351     -0.2715
    166  CB        36.2470    7.3940   20.4970 C.3   351  ASP351      0.1450
    167  CG        35.8120    6.6180   21.7290 C.2   351  ASP351      0.3671
    168  OD1       35.5060    5.4140   21.6050 O.co2 351  ASP351     -0.2456
    169  OD2       35.7600    7.2230   22.8220 O.co2 351  ASP351     -0.2456
    170  N         36.4720    5.8530   17.8410 N.am  352  ALA352     -0.1963
    171  CA        36.1230    5.7400   16.4240 C.3   352  ALA352      0.1728
    172  C         34.6980    5.1970   16.3590 C.2   352  ALA352      0.2616
    173  O         34.4430    4.0750   16.7870 O.2   352  ALA352     -0.2715
    174  CB        37.0820    4.7990   15.7140 C.3   352  ALA352      0.0334
    175  N         33.7750    5.9970   15.8300 N.am  353  PHE353     -0.1974
    176  CA        32.3700    5.5970   15.7410 C.3   353  PHE353      0.1639
    177  C         31.8310    5.4270   14.3230 C.2   353  PHE353      0.2290
    178  O         32.1440    6.2050   13.4220 O.2   353  PHE353     -0.2864
    179  CB        31.4910    6.6220   16.4550 C.3   353  PHE353      0.0560
    180  CG        31.8600    6.8460   17.8830 C.ar  353  PHE353     -0.0200
    181  CD1       31.5500    5.8990   18.8500 C.ar  353  PHE353     -0.0042
    182  CD2       32.5360    7.9990   18.2630 C.ar  353  PHE353     -0.0042
    183  CE1       31.9120    6.0980   20.1820 C.ar  353  PHE353     -0.0003
    184  CE2       32.9020    8.2070   19.5920 C.ar  353  PHE353     -0.0003
    185  CZ        32.5900    7.2560   20.5500 C.ar  353  PHE353     -0.0000
@<TRIPOS>BOND
     1     1     2    1
     2    93    92    2
     3     2     3    1
     4     2     5    1
     5    92    91    1
     6     8     9    2
     7     8     7    1
     8     3     4    2
     9     3     6   am
    10    17    18    1
    11     6     7    1
    12     7    10    1
    13    95    94    1
    14    89    87    1
    15    91    90    1
    16    91    94    1
    17    19    18    1
    18    19    20    2
    19    87    88    1
    20    87    86    1
    21    10    11    1
    22    18    21    1
    23    90    84   am
    24    94    96    1
    25    21    22    1
    26    21    23    1
    27    84    83    1
    28    84    85    2
    29    11    12   ar
    30    11    13   ar
    31    12    14   ar
    32    86    83    1
    33    83    82    1
    34   124   123    2
    35   122   121    1
    36   122   123    1
    37   122   125    1
    38   126   125    1
    39   126   128    1
    40    13    15   ar
    41    14    16   ar
    42    78    77    2
    43   127   125    1
    44    82    77   am
    45    73    72    1
    46    77    76    1
    47    74    72    1
    48    15    16   ar
    49   103   102    1
    50    72    71    1
    51   120   118    1
    52   104   102    1
    53   178   177    2
    54   116   115    2
    55    76    75    1
    56    76    79    1
    57    80    79    1
    58   102   101    1
    59   115   114    1
    60    75    69   am
    61   114   117    1
    62   114   113    1
    63   177   176    1
    64    79    81    1
    65    71    68    1
    66   111   110    1
    67   117   118    1
    68   112   110    1
    69   118   119    1
    70   101    98    1
    71    69    68    1
    72    69    70    2
    73    68    67    1
    74    31    29    1
    75   110   109    1
    76    29    28    1
    77   174   171    1
    78   176   175    1
    79   176   179    1
    80   175   172   am
    81    63    62    2
    82    24    25    1
    83   136   134    1
    84   155   153    1
    85   109   106    1
    86    98    97    1
    87    98    99    1
    88   172   171    1
    89   172   173    2
    90   171   170    1
    91   179   180    1
    92    67    62   am
    93    62    61    1
    94   100    99    2
    95    28    25    1
    96    28    30    1
    97    25    26    1
    98   154   153    1
    99   134   133    1
   100   134   135    1
   101   106   105    1
   102   106   107    1
   103   153   150    1
   104   165   164    2
   105   170   164   am
   106   180   182   ar
   107   180   181   ar
   108   133   130    1
   109    44    42    1
   110    66    64    1
   111    61    64    1
   112    61    60    1
   113   132   131    2
   114   182   184   ar
   115   164   163    1
   116    26    27    2
   117    64    65    1
   118   150   149    1
   119   150   151    1
   120   107   108    2
   121   149   139   am
   122   181   183   ar
   123   131   130    1
   124   131   137   am
   125    42    41    1
   126   130   129    1
   127   139   138    1
   128   139   140    2
   129    60    55   am
   130    59    57    1
   131   138   137    1
   132   138   141    1
   133   184   185   ar
   134   151   156   am
   135   151   152    2
   136   163   162    1
   137   163   166    1
   138    56    55    2
   139    55    54    1
   140   162   158   am
   141   183   185   ar
   142    43    41    1
   143   156   157    1
   144    41    38    1
   145   166   167    1
   146   141   142    1
   147    57    54    1
   148    57    58    1
   149    54    53    1
   150   158   157    1
   151   158   159    2
   152   157   160    1
   153    38    37    1
   154    38    39    1
   155    36    33    1
   156   168   167   ar
   157   167   169   ar
   158   142   143   ar
   159   142   144   ar
   160    37    34   am
   161   160   161    1
   162   143   145   ar
   163    53    47   am
   164    34    35    2
   165    34    33    1
   166    48    47    2
   167   144   146   ar
   168    39    40    2
   169    33    32    1
   170    47    46    1
   171   145   147   ar
   172   146   147   ar
   173   147   148    1
   174    46    45    1
   175    46    49    1
   176    49    50    1
   177    50    51    1
   178    50    52    1
