@<TRIPOS>MOLECULE
tmp/1r1oA00.pdb
 142 130 0 0 0
SMALL
GASTEIGER

@<TRIPOS>ATOM
      1  N         -4.7660   43.3190   -2.3010 N.3    96  HIS96      -0.1241
      2  CA        -4.6440   43.2860   -0.8440 C.3    96  HIS96       0.1621
      3  C         -5.2730   44.5150   -0.1500 C.2    96  HIS96       0.2264
      4  O         -5.2990   44.6010    1.0760 O.2    96  HIS96      -0.2867
      5  CB        -3.1600   43.1690   -0.4700 C.3    96  HIS96       0.0745
      6  CG        -2.9120   42.4500    0.8180 C.ar   96  HIS96       0.0817
      7  ND1       -1.6530   42.0650    1.2220 N.ar   96  HIS96      -0.2268
      8  CD2       -3.7560   42.0470    1.7960 C.ar   96  HIS96       0.1154
      9  CE1       -1.7300   41.4550    2.3910 C.ar   96  HIS96       0.1986
     10  NE2       -2.9960   41.4320    2.7620 N.ar   96  HIS96      -0.2212
     11  N          3.6790   38.5710    4.0590 N.3   119  ASP119     -0.1239
     12  CA         3.7630   39.3340    2.8300 C.3   119  ASP119      0.1674
     13  C          5.2420   39.6790    2.5650 C.2   119  ASP119      0.2266
     14  O          6.0830   39.5920    3.4720 O.2   119  ASP119     -0.2867
     15  CB         2.9250   40.6010    3.0160 C.3   119  ASP119      0.1410
     16  CG         2.7420   41.3880    1.7450 C.2   119  ASP119      0.3668
     17  OD1        1.6490   41.9560    1.5650 O.co2 119  ASP119     -0.2456
     18  OD2        3.6860   41.4620    0.9360 O.co2 119  ASP119     -0.2456
     19  N          5.9430   42.5840    1.2560 N.3   121  HIS121     -0.1241
     20  CA         5.8010   44.0210    1.4670 C.3   121  HIS121      0.1621
     21  C          5.0760   44.3480    2.7770 C.2   121  HIS121      0.2264
     22  O          4.3130   43.5480    3.3110 O.2   121  HIS121     -0.2867
     23  CB         4.9990   44.6400    0.3310 C.3   121  HIS121      0.0745
     24  CG         5.4320   44.1850   -1.0180 C.ar  121  HIS121      0.0817
     25  ND1        4.8460   43.1220   -1.6620 N.ar  121  HIS121     -0.2268
     26  CD2        6.4340   44.6120   -1.8220 C.ar  121  HIS121      0.1154
     27  CE1        5.4710   42.9020   -2.8040 C.ar  121  HIS121      0.1986
     28  NE2        6.4420   43.7940   -2.9240 N.ar  121  HIS121     -0.2212
     29  N          3.0510   47.1930    3.1430 N.3   123  ASP123     -0.1239
     30  CA         1.7540   47.7670    2.7950 C.3   123  ASP123      0.1674
     31  C          1.3370   48.7180    3.8950 C.2   123  ASP123      0.2266
     32  O          0.1950   48.7090    4.3370 O.2   123  ASP123     -0.2867
     33  CB         0.6960   46.6670    2.6500 C.3   123  ASP123      0.1410
     34  CG         1.0870   45.6080    1.6390 C.2   123  ASP123      0.3668
     35  OD1        0.4290   44.5370    1.6220 O.co2 123  ASP123     -0.2456
     36  OD2        2.0440   45.8540    0.8630 O.co2 123  ASP123     -0.2456
     37  N          2.2020   52.1280    3.6580 N.3   125  ASN125     -0.1240
     38  CA         2.4220   53.4380    3.0500 C.3   125  ASN125      0.1653
     39  C          1.1820   54.2660    3.3370 C.2   125  ASN125      0.2266
     40  O          0.0620   53.7700    3.1800 O.2   125  ASN125     -0.2867
     41  CB         2.5660   53.3210    1.5250 C.3   125  ASN125      0.1155
     42  CG         4.0100   53.1720    1.0670 C.2   125  ASN125      0.2627
     43  OD1        4.8710   54.0000    1.3930 O.2   125  ASN125     -0.2716
     44  ND2        4.2780   52.1210    0.2830 N.am  125  ASN125     -0.0877
     45  N          3.0260   57.0910   -0.3220 N.3   130  THR130     -0.1203
     46  CA         3.0380   56.2450   -1.5090 C.3   130  THR130      0.1994
     47  C          3.7160   57.0270   -2.6150 C.2   130  THR130      0.2619
     48  O          3.8050   58.2540   -2.5530 O.2   130  THR130     -0.2717
     49  CB         1.6300   55.8440   -1.9930 C.3   130  THR130      0.1784
     50  OG1        0.7900   57.0000   -2.0890 O.3   130  THR130     -0.2211
     51  CG2        1.0220   54.8340   -1.0570 C.3   130  THR130      0.0376
     52  N          4.2080   56.3080   -3.6160 N.am  131  SER131     -0.1937
     53  CA         4.8810   56.9350   -4.7450 C.3   131  SER131      0.2055
     54  C          4.0660   56.5690   -5.9650 C.2   131  SER131      0.2643
     55  O          4.3280   57.0330   -7.0690 O.2   131  SER131     -0.2714
     56  CB         6.2940   56.3810   -4.9020 C.3   131  SER131      0.2130
     57  OG         6.9800   56.4110   -3.6640 O.3   131  SER131     -0.2179
     58  N          3.0650   55.7310   -5.7370 N.am  132  SER132     -0.1949
     59  CA         2.2160   55.2670   -6.8050 C.3   132  SER132      0.1924
     60  C          0.7570   55.5830   -6.5360 C.2   132  SER132      0.2314
     61  O         -0.0570   55.6410   -7.4640 O.2   132  SER132     -0.2863
     62  CB         2.3790   53.7550   -6.9790 C.3   132  SER132      0.2116
     63  OG         1.9420   53.0490   -5.8260 O.3   132  SER132     -0.2180
     64  N         -1.2900   53.7280   -5.4100 N.3   134  ASN134     -0.1240
     65  CA        -2.0360   52.4720   -5.3950 C.3   134  ASN134      0.1653
     66  C         -2.3030   52.0960   -3.9390 C.2   134  ASN134      0.2266
     67  O         -1.3780   51.9570   -3.1310 O.2   134  ASN134     -0.2867
     68  CB        -1.2560   51.3670   -6.1060 C.3   134  ASN134      0.1155
     69  CG        -0.9250   51.7290   -7.5390 C.2   134  ASN134      0.2627
     70  OD1        0.1680   52.2060   -7.8220 O.2   134  ASN134     -0.2716
     71  ND2       -1.8740   51.5190   -8.4460 N.am  134  ASN134     -0.0877
     72  N         -3.4980   49.2710   -2.6540 N.3   136  HIS136     -0.1226
     73  CA        -3.1910   47.9250   -2.1810 C.3   136  HIS136      0.1752
     74  C         -1.8730   47.8950   -1.4060 C.2   136  HIS136      0.2596
     75  O         -1.4750   46.8540   -0.8980 O.2   136  HIS136     -0.2718
     76  CB        -3.1540   46.9160   -3.3450 C.3   136  HIS136      0.0759
     77  CG        -1.8850   46.9400   -4.1450 C.ar  136  HIS136      0.0818
     78  ND1       -1.6040   45.9970   -5.1080 N.ar  136  HIS136     -0.2268
     79  CD2       -0.8220   47.7820   -4.1230 C.ar  136  HIS136      0.1154
     80  CE1       -0.4230   46.2520   -5.6410 C.ar  136  HIS136      0.1986
     81  NE2        0.0730   47.3290   -5.0610 N.ar  136  HIS136     -0.2212
     82  N         -1.2030   49.0400   -1.3220 N.am  137  GLY137     -0.1957
     83  CA         0.0570   49.1140   -0.5990 C.3   137  GLY137      0.1869
     84  C         -0.0310   50.0260    0.6090 C.2   137  GLY137      0.2309
     85  O          0.9860   50.4930    1.1240 O.2   137  GLY137     -0.2863
     86  N         11.0730   43.5180    0.5720 N.3   176  ASP176     -0.1239
     87  CA        11.0240   44.6730   -0.3290 C.3   176  ASP176      0.1674
     88  C         10.2630   45.8190    0.3570 C.2   176  ASP176      0.2266
     89  O          9.0720   46.0210    0.1550 O.2   176  ASP176     -0.2867
     90  CB        10.3660   44.2700   -1.6560 C.3   176  ASP176      0.1410
     91  CG        10.1220   45.4570   -2.5880 C.2   176  ASP176      0.3668
     92  OD1       10.9380   46.4070   -2.5970 O.co2 176  ASP176     -0.2456
     93  OD2        9.1120   45.4170   -3.3290 O.co2 176  ASP176     -0.2456
     94  N          9.8510   49.9280    1.2400 N.3   178  ASP178     -0.1239
     95  CA        10.1870   51.2880    0.8350 C.3   178  ASP178      0.1674
     96  C         10.8900   52.0270    1.9510 C.2   178  ASP178      0.2266
     97  O         10.8430   51.6160    3.1220 O.2   178  ASP178     -0.2867
     98  CB         8.9450   52.0910    0.4790 C.3   178  ASP178      0.1410
     99  CG         8.3890   51.7260   -0.8620 C.2   178  ASP178      0.3668
    100  OD1        9.0860   51.0320   -1.6310 O.co2 178  ASP178     -0.2456
    101  OD2        7.2550   52.1470   -1.1550 O.co2 178  ASP178     -0.2456
    102  N          8.1650   53.2710    4.4290 N.3   181  GLU181     -0.1245
    103  CA         7.5780   52.1140    5.0910 C.3   181  GLU181      0.1567
    104  C          8.5140   51.6250    6.1890 C.2   181  GLU181      0.2260
    105  O          8.0660   51.3100    7.2950 O.2   181  GLU181     -0.2867
    106  CB         7.3190   50.9910    4.0850 C.3   181  GLU181      0.0388
    107  CG         6.0930   51.2030    3.2040 C.3   181  GLU181      0.1160
    108  CD         5.8720   50.0740    2.1940 C.2   181  GLU181      0.3649
    109  OE1        6.7310   49.9000    1.3040 O.co2 181  GLU181     -0.2457
    110  OE2        4.8500   49.3560    2.2770 O.co2 181  GLU181     -0.2457
    111  N         -0.5960   37.2610    1.8490 N.3   227  ASP227     -0.1239
    112  CA        -0.3240   37.8290    0.5340 C.3   227  ASP227      0.1674
    113  C          0.4940   36.8030   -0.2370 C.2   227  ASP227      0.2266
    114  O          1.6680   36.6060    0.0650 O.2   227  ASP227     -0.2867
    115  CB         0.4850   39.1230    0.6590 C.3   227  ASP227      0.1410
    116  CG         0.7070   39.8050   -0.6860 C.2   227  ASP227      0.3668
    117  OD1        0.5290   41.0330   -0.7590 O.co2 227  ASP227     -0.2456
    118  OD2        1.0690   39.1070   -1.6720 O.co2 227  ASP227     -0.2456
    119  N          2.2610   36.7260   -2.6530 N.3   229  ASP229     -0.1239
    120  CA         3.5980   37.0120   -3.1370 C.3   229  ASP229      0.1674
    121  C          4.6850   36.8580   -2.0670 C.2   229  ASP229      0.2266
    122  O          5.8690   37.1130   -2.3270 O.2   229  ASP229     -0.2867
    123  CB         3.6670   38.4190   -3.7830 C.3   229  ASP229      0.1410
    124  CG         3.4860   39.5600   -2.7900 C.2   229  ASP229      0.3668
    125  OD1        4.2430   39.6640   -1.7920 O.co2 229  ASP229     -0.2456
    126  OD2        2.5730   40.3710   -3.0350 O.co2 229  ASP229     -0.2456
    127  N          3.2800   41.7930   -7.7730 N.3   241  THR241     -0.1218
    128  CA         4.6430   42.1560   -7.3970 C.3   241  THR241      0.1862
    129  C          5.5560   41.0020   -7.0030 C.2   241  THR241      0.2287
    130  O          5.7520   40.7480   -5.8140 O.2   241  THR241     -0.2866
    131  CB         4.6710   43.1680   -6.2180 C.3   241  THR241      0.1770
    132  OG1        3.8120   44.2760   -6.4950 O.3   241  THR241     -0.2211
    133  CG2        6.1020   43.6830   -5.9780 C.3   241  THR241      0.0375
    134  N         -4.1920   38.6170   -3.5080 N.3   272  GLU272     -0.1245
    135  CA        -3.3160   38.7930   -4.6720 C.3   272  GLU272      0.1567
    136  C         -3.1520   37.7360   -5.7710 C.2   272  GLU272      0.2260
    137  O         -2.2090   37.8470   -6.5450 O.2   272  GLU272     -0.2867
    138  CB        -1.9140   39.1840   -4.1870 C.3   272  GLU272      0.0388
    139  CG        -1.8440   40.4950   -3.4020 C.3   272  GLU272      0.1160
    140  CD        -2.0780   41.7260   -4.2710 C.2   272  GLU272      0.3649
    141  OE1       -2.3020   41.5630   -5.4900 O.co2 272  GLU272     -0.2457
    142  OE2       -2.0330   42.8540   -3.7270 O.co2 272  GLU272     -0.2457
@<TRIPOS>BOND
     1    71    69   am
     2    70    69    2
     3   127   128    1
     4    69    68    1
     5    61    60    2
     6   128   129    1
     7   128   131    1
     8    55    54    2
     9   129   130    2
    10    62    59    1
    11    62    63    1
    12    59    60    1
    13    59    58    1
    14   137   136    2
    15   132   131    1
    16   131   133    1
    17    68    65    1
    18    54    58   am
    19    54    53    1
    20   136   135    1
    21    80    78   ar
    22    80    81   ar
    23   141   140   ar
    24    64    65    1
    25    65    66    1
    26    78    77   ar
    27    81    79   ar
    28    56    53    1
    29    56    57    1
    30    53    52    1
    31   135   138    1
    32   135   134    1
    33   140   142   ar
    34   140   139    1
    35   138   139    1
    36    77    79   ar
    37    77    76    1
    38    66    67    2
    39   123   120    1
    40   123   124    1
    41    52    47   am
    42    76    73    1
    43    93    91   ar
    44   120   119    1
    45   120   121    1
    46   126   124   ar
    47    28    27   ar
    48    28    26   ar
    49    27    25   ar
    50   124   125   ar
    51    72    73    1
    52    47    48    2
    53    47    46    1
    54    92    91   ar
    55    91    90    1
    56   122   121    2
    57     1     2    1
    58    73    74    1
    59    50    49    1
    60    49    46    1
    61    49    51    1
    62    26    24   ar
    63   118   116   ar
    64    25    24   ar
    65    90    87    1
    66   100    99   ar
    67    46    45    1
    68    74    82   am
    69    74    75    2
    70    82    83    1
    71   101    99   ar
    72    24    23    1
    73    99    98    1
    74     2     5    1
    75     2     3    1
    76   117   116   ar
    77   116   115    1
    78    83    84    1
    79     5     6    1
    80    87    88    1
    81    87    86    1
    82   113   114    2
    83   113   112    1
    84     3     4    2
    85    89    88    2
    86    44    42   am
    87    23    20    1
    88    98    95    1
    89   112   115    1
    90   112   111    1
    91    84    85    2
    92     6     7   ar
    93     6     8   ar
    94    95    94    1
    95    95    96    1
    96    36    34   ar
    97    18    16   ar
    98    42    43    2
    99    42    41    1
   100     7     9   ar
   101    19    20    1
   102   109   108   ar
   103    20    21    1
   104    41    38    1
   105    17    16   ar
   106    35    34   ar
   107    34    33    1
   108    16    15    1
   109     8    10   ar
   110    96    97    2
   111   108   110   ar
   112   108   107    1
   113     9    10   ar
   114    13    12    1
   115    13    14    2
   116    33    30    1
   117    21    22    2
   118    30    29    1
   119    30    31    1
   120    12    15    1
   121    12    11    1
   122    38    39    1
   123    38    37    1
   124    40    39    2
   125   107   106    1
   126    31    32    2
   127   106   103    1
   128   102   103    1
   129   103   104    1
   130   104   105    2
