@<TRIPOS>MOLECULE
tmp/1r1pB00.pdb
 168 165 0 0 0
SMALL
GASTEIGER

@<TRIPOS>ATOM
      1  N          7.7740  111.0060  124.9910 N.3    18  ARG18      -0.1231
      2  CA         7.9480  111.6420  126.2770 C.3    18  ARG18       0.1694
      3  C          7.9420  110.6860  127.4680 C.2    18  ARG18       0.2592
      4  O          8.8370  110.6890  128.2970 O.2    18  ARG18      -0.2718
      5  CB         6.8350  112.6550  126.4770 C.3    18  ARG18       0.0321
      6  CG         6.9860  113.5830  127.6410 C.3    18  ARG18       0.0489
      7  CD         5.7400  114.4920  127.7820 C.3    18  ARG18       0.2205
      8  NE         5.6860  115.3100  128.9890 N.pl3  18  ARG18      -0.0865
      9  CZ         5.9370  116.6230  129.1120 C.cat  18  ARG18       0.5346
     10  NH1        6.3640  117.4050  128.1160 N.pl3  18  ARG18       0.1354
     11  NH2        5.7330  117.1800  130.3180 N.pl3  18  ARG18       0.1354
     12  N          6.9630  109.8200  127.4920 N.am   19  HIS19      -0.1976
     13  CA         6.8530  108.8580  128.5990 C.3    19  HIS19       0.1656
     14  C          8.0130  107.8760  128.6430 C.2    19  HIS19       0.2291
     15  O          8.5290  107.5690  129.7380 O.2    19  HIS19      -0.2864
     16  CB         5.4410  108.2320  128.6150 C.3    19  HIS19       0.0771
     17  CG         4.3530  109.2230  128.9870 C.ar   19  HIS19       0.0820
     18  ND1        4.6270  110.4760  129.5260 N.ar   19  HIS19      -0.2267
     19  CD2        3.0010  109.1640  128.8570 C.ar   19  HIS19       0.1154
     20  CE1        3.4970  111.1410  129.7020 C.ar   19  HIS19       0.1986
     21  NE2        2.4950  110.3610  129.3200 N.ar   19  HIS19      -0.2212
     22  N         14.8790  114.1400  121.7900 N.3    36  ARG36      -0.1245
     23  CA        13.9190  113.4480  121.0010 C.3    36  ARG36       0.1563
     24  C         13.0120  114.4120  120.1880 C.2    36  ARG36       0.2260
     25  O         12.8630  115.5830  120.5510 O.2    36  ARG36      -0.2867
     26  CB        13.0650  112.6310  121.9530 C.3    36  ARG36       0.0307
     27  CG        12.2970  113.4700  122.9740 C.3    36  ARG36       0.0489
     28  CD        11.6510  112.6750  124.1600 C.3    36  ARG36       0.2205
     29  NE        11.0720  113.6380  125.0780 N.pl3  36  ARG36      -0.0865
     30  CZ        10.0060  114.3770  124.8930 C.cat  36  ARG36       0.5346
     31  NH1        9.2060  114.2580  123.8440 N.pl3  36  ARG36       0.1354
     32  NH2        9.6940  115.2410  125.8270 N.pl3  36  ARG36       0.1354
     33  N          9.7580  116.0770  119.3040 N.3    38  SER38      -0.1202
     34  CA         8.5520  116.3770  120.0660 C.3    38  SER38       0.2020
     35  C          7.3220  115.6370  119.6090 C.2    38  SER38       0.2619
     36  O          6.9800  115.5480  118.4290 O.2    38  SER38      -0.2717
     37  CB         8.2470  117.8870  120.0800 C.3    38  SER38       0.2103
     38  OG         7.0800  118.2030  120.8290 O.3    38  SER38      -0.2182
     39  N          6.5840  115.2130  120.6370 N.am   39  GLN39      -0.1965
     40  CA         5.3200  114.5290  120.4800 C.3    39  GLN39       0.1733
     41  C          4.1470  115.4420  120.2910 C.2    39  GLN39       0.2617
     42  O          3.3850  115.3100  119.3180 O.2    39  GLN39      -0.2715
     43  CB         5.0970  113.6560  121.7480 C.3    39  GLN39       0.0408
     44  CG         4.2340  112.4720  121.4950 C.3    39  GLN39       0.0908
     45  CD         4.3860  111.3790  122.5470 C.2    39  GLN39       0.2608
     46  OE1        5.2630  111.4470  123.4620 O.2    39  GLN39      -0.2717
     47  NE2        3.5100  110.3860  122.4470 N.am   39  GLN39      -0.0878
     48  N          4.0120  116.3960  121.2010 N.am   40  SER40      -0.1936
     49  CA         2.8730  117.3020  121.1820 C.3    40  SER40       0.2055
     50  C          2.9910  118.3950  120.1320 C.2    40  SER40       0.2643
     51  O          1.9720  118.9360  119.7510 O.2    40  SER40      -0.2714
     52  CB         2.6990  117.9500  122.5490 C.3    40  SER40       0.2130
     53  OG         3.9110  118.4870  123.0330 O.3    40  SER40      -0.2179
     54  N          4.2040  118.7700  119.7180 N.am   41  SER41      -0.1949
     55  CA         4.4230  119.7410  118.6620 C.3    41  SER41       0.1924
     56  C          5.2800  119.1700  117.5200 C.2    41  SER41       0.2314
     57  O          6.4830  119.3230  117.5540 O.2    41  SER41      -0.2863
     58  CB         5.1040  121.0130  119.2030 C.3    41  SER41       0.2116
     59  OG         4.1710  121.7230  119.9970 O.3    41  SER41      -0.2180
     60  N         12.6480  118.1360  121.7200 N.3    46  SER46      -0.1217
     61  CA        12.5420  118.1930  123.1620 C.3    46  SER46       0.1889
     62  C         13.7850  117.5990  123.7990 C.2    46  SER46       0.2288
     63  O         14.3740  116.6660  123.2650 O.2    46  SER46      -0.2866
     64  CB        11.3050  117.4110  123.6630 C.3    46  SER46       0.2089
     65  OG        10.1220  117.9470  123.1420 O.3    46  SER46      -0.2183
     66  N         16.3290  115.1740  136.6420 N.3    51  HIS51      -0.1241
     67  CA        16.5570  116.0720  137.8030 C.3    51  HIS51       0.1621
     68  C         16.6170  115.1580  139.0720 C.2    51  HIS51       0.2264
     69  O         16.5260  113.9550  138.9610 O.2    51  HIS51      -0.2867
     70  CB        15.4180  117.0980  137.9060 C.3    51  HIS51       0.0745
     71  CG        15.5000  118.1850  136.8650 C.ar   51  HIS51       0.0817
     72  ND1       15.5140  117.9060  135.5070 N.ar   51  HIS51      -0.2268
     73  CD2       15.7320  119.5210  136.9810 C.ar   51  HIS51       0.1154
     74  CE1       15.6680  119.0430  134.8410 C.ar   51  HIS51       0.1986
     75  NE2       15.7970  120.0410  135.7080 N.ar   51  HIS51      -0.2212
     76  N         12.3420  116.1790  133.7710 N.3    56  GLN56      -0.1231
     77  CA        11.6890  117.3330  133.1820 C.3    56  GLN56       0.1698
     78  C         12.1650  117.5950  131.7290 C.2    56  GLN56       0.2592
     79  O         13.2290  117.1510  131.3410 O.2    56  GLN56      -0.2718
     80  CB        11.9880  118.5120  134.0650 C.3    56  GLN56       0.0381
     81  CG        11.1810  118.2700  135.3490 C.3    56  GLN56       0.0905
     82  CD        11.3510  119.2860  136.3710 C.2    56  GLN56       0.2608
     83  OE1       11.7030  120.4300  136.0890 O.2    56  GLN56      -0.2717
     84  NE2       11.1240  118.8730  137.6210 N.am   56  GLN56      -0.0878
     85  N         11.3550  118.3700  131.0020 N.am   57  HIS57      -0.1962
     86  CA        11.3950  118.4990  129.5410 C.3    57  HIS57       0.1787
     87  C         11.4770  119.9730  129.1450 C.2    57  HIS57       0.2620
     88  O         10.8240  120.8100  129.7660 O.2    57  HIS57      -0.2715
     89  CB        10.1250  117.9080  128.9740 C.3    57  HIS57       0.0785
     90  CG         9.8430  116.5240  129.4700 C.ar   57  HIS57       0.0821
     91  ND1       10.4240  115.4060  128.9190 N.ar   57  HIS57      -0.2267
     92  CD2        9.0700  116.0850  130.4990 C.ar   57  HIS57       0.1154
     93  CE1       10.0030  114.3330  129.5640 C.ar   57  HIS57       0.1986
     94  NE2        9.2090  114.7120  130.5470 N.ar   57  HIS57      -0.2212
     95  N         12.3680  120.2480  128.1970 N.am   58  PHE58      -0.1960
     96  CA        12.7200  121.5430  127.6970 C.3    58  PHE58       0.1771
     97  C         12.4000  121.5010  126.1970 C.2    58  PHE58       0.2619
     98  O         12.6630  120.4820  125.5160 O.2    58  PHE58      -0.2715
     99  CB        14.2190  121.8440  127.8770 C.3    58  PHE58       0.0574
    100  CG        14.6660  121.8820  129.3080 C.ar   58  PHE58      -0.0200
    101  CD1       14.7890  120.6840  130.0550 C.ar   58  PHE58      -0.0042
    102  CD2       14.9210  123.1070  129.9430 C.ar   58  PHE58      -0.0042
    103  CE1       15.2190  120.7200  131.4110 C.ar   58  PHE58      -0.0003
    104  CE2       15.2550  123.1310  131.2980 C.ar   58  PHE58      -0.0003
    105  CZ        15.4220  121.9570  132.0160 C.ar   58  PHE58      -0.0000
    106  N         11.8030  122.5760  125.7020 N.am   59  LYS59      -0.1977
    107  CA        11.4720  122.7440  124.2980 C.3    59  LYS59       0.1596
    108  C         12.6840  123.4240  123.6430 C.2    59  LYS59       0.2287
    109  O         13.2130  124.4660  124.1320 O.2    59  LYS59      -0.2864
    110  CB        10.2060  123.5960  124.1710 C.3    59  LYS59       0.0298
    111  CG         9.8630  124.0010  122.7260 C.3    59  LYS59       0.0038
    112  CD         8.4480  124.4350  122.4070 C.3    59  LYS59       0.0206
    113  CE         7.3360  123.4540  122.6850 C.3    59  LYS59       0.1093
    114  NZ         7.4940  122.0760  122.0030 N.3    59  LYS59      -0.1314
    115  N         14.0140  125.7710  121.2550 N.3    61  MET61      -0.1245
    116  CA        13.5390  126.9400  120.5520 C.3    61  MET61       0.1570
    117  C         14.5230  127.2280  119.3910 C.2    61  MET61       0.2261
    118  O         15.7510  127.0280  119.4730 O.2    61  MET61      -0.2867
    119  CB        13.4600  128.1620  121.4570 C.3    61  MET61       0.0387
    120  CG        12.6620  128.0220  122.8550 C.3    61  MET61       0.0595
    121  SD        11.0360  127.6050  122.5620 S.3    61  MET61      -0.1393
    122  CE        10.2470  129.4080  122.2740 C.3    61  MET61       0.0692
    123  N         17.3620  127.3920  124.5200 N.3    70  LEU70      -0.1231
    124  CA        16.3830  126.9530  125.4860 C.3    70  LEU70       0.1693
    125  C         15.9150  128.1670  126.3180 C.2    70  LEU70       0.2592
    126  O         14.7750  128.2770  126.6340 O.2    70  LEU70      -0.2718
    127  CB        17.0480  126.0000  126.4600 C.3    70  LEU70       0.0284
    128  CG        17.1290  124.4850  126.2240 C.3    70  LEU70       0.0019
    129  CD1       16.6300  123.9840  124.8810 C.3    70  LEU70       0.0001
    130  CD2       18.2780  123.8350  126.7750 C.3    70  LEU70       0.0001
    131  N         16.8360  129.0320  126.6440 N.am   71  TRP71      -0.1976
    132  CA        16.5650  130.1520  127.5910 C.3    71  TRP71       0.1640
    133  C         16.9040  131.4760  126.9410 C.2    71  TRP71       0.2290
    134  O         16.0380  132.0780  126.2790 O.2    71  TRP71      -0.2864
    135  CB        17.3810  129.8750  128.8710 C.3    71  TRP71       0.0576
    136  CG        16.8760  128.7140  129.6940 C.ar   71  TRP71       0.0006
    137  CD1       17.5660  127.5670  129.9880 C.ar   71  TRP71       0.0946
    138  CD2       15.6180  128.5940  130.3660 C.ar   71  TRP71       0.0152
    139  NE1       16.8230  126.7490  130.7810 N.ar   71  TRP71      -0.2442
    140  CE2       15.6270  127.3480  131.0580 C.ar   71  TRP71       0.0810
    141  CE3       14.4890  129.4140  130.4920 C.ar   71  TRP71       0.0012
    142  CZ2       14.5270  126.8760  131.7840 C.ar   71  TRP71       0.0191
    143  CZ3       13.3890  128.9390  131.2700 C.ar   71  TRP71       0.0001
    144  CH2       13.4370  127.7310  131.9280 C.ar   71  TRP71       0.0015
    145  N         18.7990  123.9820  134.4040 N.3    91  SER91      -0.1202
    146  CA        17.6870  124.3550  135.3170 C.3    91  SER91       0.2020
    147  C         17.9150  125.7160  135.9580 C.2    91  SER91       0.2619
    148  O         19.0630  126.1060  136.2440 O.2    91  SER91      -0.2717
    149  CB        17.5530  123.3380  136.4230 C.3    91  SER91       0.2103
    150  OG        16.4950  123.5920  137.3240 O.3    91  SER91      -0.2182
    151  N         16.8200  126.4530  136.1110 N.am   92  LYS92      -0.1965
    152  CA        16.8340  127.7390  136.8080 C.3    92  LYS92       0.1728
    153  C         16.3140  127.6470  138.2590 C.2    92  LYS92       0.2616
    154  O         16.2020  128.6560  138.9530 O.2    92  LYS92      -0.2715
    155  CB        15.9650  128.7430  136.0510 C.3    92  LYS92       0.0311
    156  CG        16.7070  129.6120  135.1170 C.3    92  LYS92       0.0038
    157  CD        17.0750  128.8240  133.9410 C.3    92  LYS92       0.0206
    158  CE        17.9980  129.5370  132.9150 C.3    92  LYS92       0.1093
    159  NZ        19.0190  130.4970  133.2890 N.3    92  LYS92      -0.1314
    160  N         15.9920  126.4470  138.7130 N.am   93  GLN93      -0.1977
    161  CA        15.4730  126.2480  140.0570 C.3    93  GLN93       0.1601
    162  C         16.4420  125.5270  140.9430 C.2    93  GLN93       0.2287
    163  O         16.4350  125.7400  142.1340 O.2    93  GLN93      -0.2864
    164  CB        14.1820  125.4590  139.9790 C.3    93  GLN93       0.0394
    165  CG        13.0240  126.3570  139.5440 C.3    93  GLN93       0.0908
    166  CD        11.7180  125.6380  139.6630 C.2    93  GLN93       0.2608
    167  OE1       11.5550  124.5530  139.0570 O.2    93  GLN93      -0.2717
    168  NE2       10.7690  126.2090  140.4420 N.am   93  GLN93      -0.0878
@<TRIPOS>BOND
     1    56    57    2
     2    56    55    1
     3    36    35    2
     4    55    58    1
     5    55    54    1
     6    58    59    1
     7    33    34    1
     8    42    41    2
     9   117   118    2
    10   117   116    1
    11    35    34    1
    12    35    39   am
    13    54    50   am
    14    51    50    2
    15    34    37    1
    16    37    38    1
    17    50    49    1
    18    24    25    2
    19    24    23    1
    20    41    40    1
    21    41    48   am
    22    40    39    1
    23    40    43    1
    24   116   115    1
    25   116   119    1
    26    23    22    1
    27    23    26    1
    28    49    48    1
    29    49    52    1
    30   119   120    1
    31    44    43    1
    32    44    45    1
    33    60    61    1
    34    26    27    1
    35   114   113    1
    36   122   121    1
    37   112   113    1
    38   112   111    1
    39    47    45   am
    40    45    46    2
    41    52    53    1
    42   121   120    1
    43   111   110    1
    44    27    28    1
    45    65    64    1
    46    61    64    1
    47    61    62    1
    48    63    62    2
    49   108   109    2
    50   108   107    1
    51    31    30    1
    52    28    29    1
    53   110   107    1
    54   107   106    1
    55   123   124    1
    56   129   128    1
    57    30    29    2
    58    30    32    1
    59     1     2    1
    60   124   125    1
    61   124   127    1
    62    98    97    2
    63   106    97   am
    64    97    96    1
    65   128   127    1
    66   128   130    1
    67     2     5    1
    68     2     3    1
    69   134   133    2
    70   125   126    2
    71   125   131   am
    72     5     6    1
    73   131   132    1
    74   133   132    1
    75     3    12   am
    76     3     4    2
    77    12    13    1
    78   132   135    1
    79     6     7    1
    80    96    99    1
    81    96    95    1
    82     7     8    1
    83    99   100    1
    84    10     9    1
    85    95    87   am
    86    13    16    1
    87    13    14    1
    88    16    17    1
    89    14    15    2
    90    19    17   ar
    91    19    21   ar
    92   135   136    1
    93    91    90   ar
    94    91    93   ar
    95    89    90    1
    96    89    86    1
    97    17    18   ar
    98     8     9    2
    99     9    11    1
   100    87    86    1
   101    87    88    2
   102   100   102   ar
   103   100   101   ar
   104    21    20   ar
   105    90    92   ar
   106    18    20   ar
   107    86    85    1
   108    93    94   ar
   109   136   137   ar
   110   136   138   ar
   111   102   104   ar
   112   137   139   ar
   113   101   103   ar
   114   138   141   ar
   115   138   140   ar
   116   141   143   ar
   117    92    94   ar
   118   139   140   ar
   119    85    78   am
   120   140   142   ar
   121   143   144   ar
   122   104   105   ar
   123    79    78    2
   124   103   105   ar
   125    78    77    1
   126   142   144   ar
   127   158   159    1
   128   158   157    1
   129    77    76    1
   130    77    80    1
   131   157   156    1
   132    80    81    1
   133   145   146    1
   134    74    72   ar
   135    74    75   ar
   136   156   155    1
   137   146   147    1
   138   146   149    1
   139    81    82    1
   140    72    71   ar
   141    75    73   ar
   142   147   151   am
   143   147   148    2
   144   155   152    1
   145    83    82    2
   146   151   152    1
   147    82    84   am
   148   149   150    1
   149    66    67    1
   150   152   153    1
   151    71    73   ar
   152    71    70    1
   153    67    70    1
   154    67    68    1
   155   153   160   am
   156   153   154    2
   157   160   161    1
   158    69    68    2
   159   167   166    2
   160   165   166    1
   161   165   164    1
   162   166   168   am
   163   164   161    1
   164   161   162    1
   165   162   163    2
