@<TRIPOS>MOLECULE
tmp/1r1sC00.pdb
 149 144 0 0 0
SMALL
GASTEIGER

@<TRIPOS>ATOM
      1  N          3.9720    0.8500   -6.2030 N.3    14  ARG14      -0.1245
      2  CA         5.2060    1.2790   -6.9300 C.3    14  ARG14       0.1563
      3  C          5.0750    2.7350   -7.3700 C.2    14  ARG14       0.2260
      4  O          5.9820    3.5600   -7.3710 O.2    14  ARG14      -0.2867
      5  CB         5.4350    0.2390   -8.0420 C.3    14  ARG14       0.0307
      6  CG         6.5610    0.5380   -8.9490 C.3    14  ARG14       0.0489
      7  CD         6.7740   -0.5990  -10.0170 C.3    14  ARG14       0.2205
      8  NE         7.8740   -0.2960  -10.9320 N.pl3  14  ARG14      -0.0865
      9  CZ         8.9810   -1.0250  -11.0610 C.cat  14  ARG14       0.5346
     10  NH1        9.2060   -2.1030  -10.2840 N.pl3  14  ARG14       0.1354
     11  NH2        9.8860   -0.6570  -11.9490 N.pl3  14  ARG14       0.1354
     12  N          8.3060   -0.9550    0.7920 N.3    32  ARG32      -0.1245
     13  CA         6.9120   -1.2420    0.7180 C.3    32  ARG32       0.1563
     14  C          6.8610   -2.7670    0.4780 C.2    32  ARG32       0.2260
     15  O          7.8400   -3.3520    0.0340 O.2    32  ARG32      -0.2867
     16  CB         6.2650   -0.4080   -0.3670 C.3    32  ARG32       0.0307
     17  CG         7.0330   -0.5890   -1.7360 C.3    32  ARG32       0.0489
     18  CD         6.5380    0.0890   -2.8680 C.3    32  ARG32       0.2205
     19  NE         7.5540    0.0640   -3.8860 N.pl3  32  ARG32      -0.0865
     20  CZ         7.5190   -0.7500   -4.9030 C.cat  32  ARG32       0.5346
     21  NH1        6.4880   -1.5200   -4.9070 N.pl3  32  ARG32       0.1354
     22  NH2        8.5330   -0.7980   -5.9300 N.pl3  32  ARG32       0.1354
     23  N          5.9520   -5.5540   -1.9630 N.3    34  SER34      -0.1202
     24  CA         5.9500   -5.6180   -3.4690 C.3    34  SER34       0.2020
     25  C          4.5010   -5.7930   -3.9820 C.2    34  SER34       0.2619
     26  O          3.7070   -6.5140   -3.4910 O.2    34  SER34      -0.2717
     27  CB         6.8380   -6.7240   -4.0240 C.3    34  SER34       0.2103
     28  OG         6.7780   -6.9610   -5.4890 O.3    34  SER34      -0.2182
     29  N          4.2170   -5.0590   -5.0470 N.am   35  GLN35      -0.1965
     30  CA         2.9130   -5.0750   -5.6370 C.3    35  GLN35       0.1733
     31  C          2.8380   -6.1670   -6.7240 C.2    35  GLN35       0.2617
     32  O          1.9540   -7.0910   -6.7190 O.2    35  GLN35      -0.2715
     33  CB         2.8100   -3.7210   -6.2360 C.3    35  GLN35       0.0408
     34  CG         1.4540   -3.6040   -7.0020 C.3    35  GLN35       0.0908
     35  CD         1.2160   -2.1930   -7.5310 C.2    35  GLN35       0.2608
     36  OE1        2.1480   -1.5120   -7.7680 O.2    35  GLN35      -0.2717
     37  NE2       -0.1300   -1.7050   -7.5040 N.am   35  GLN35      -0.0878
     38  N          3.8960   -6.2720   -7.4690 N.am   36  SER36      -0.1936
     39  CA         3.9840   -7.3730   -8.4760 C.3    36  SER36       0.2055
     40  C          4.3290   -8.7480   -8.0910 C.2    36  SER36       0.2640
     41  O          3.9520   -9.5960   -8.8290 O.2    36  SER36      -0.2714
     42  CB         4.8320   -7.0710   -9.6510 C.3    36  SER36       0.2130
     43  OG         6.2480   -7.0560   -9.4240 O.3    36  SER36      -0.2179
     44  N          4.9050   -8.9900   -6.9270 N.am   37  SER37      -0.2003
     45  CA         5.1800  -10.3260   -6.4580 C.3    37  SER37       0.1610
     46  C          4.7460  -10.3970   -5.0810 C.3    37  SER37       0.2063
     47  O          5.6010  -10.1020   -4.1230 O.3    37  SER37      -0.2184
     48  CB         6.6890  -10.6110   -6.4520 C.3    37  SER37       0.2063
     49  OG         7.2420  -10.6450   -7.7850 O.3    37  SER37      -0.2184
     50  N         10.0800   -4.5490   -1.5560 N.3    42  SER42      -0.1217
     51  CA        10.6540   -3.6690   -2.4730 C.3    42  SER42       0.1889
     52  C         11.2500   -2.3900   -1.7930 C.2    42  SER42       0.2288
     53  O         10.6690   -1.8580   -0.9790 O.2    42  SER42      -0.2866
     54  CB         9.4950   -3.1940   -3.3480 C.3    42  SER42       0.2089
     55  OG         9.2640   -4.2810   -4.3110 O.3    42  SER42      -0.2183
     56  N         16.9290    8.6720   -7.3350 N.3    47  HIS47      -0.1297
     57  CA        18.1830    8.6190   -8.0300 C.3    47  HIS47       0.1306
     58  C         18.1310   10.0710   -8.5980 C.3    47  HIS47       0.2013
     59  O         17.2040   10.8800   -8.2210 O.3    47  HIS47      -0.2188
     60  CB        18.1360    7.5770   -9.1630 C.3    47  HIS47       0.0691
     61  CG        18.4770    6.1850   -8.7380 C.ar   47  HIS47       0.0814
     62  ND1       18.0060    5.6200   -7.5910 N.ar   47  HIS47      -0.2268
     63  CD2       19.3500    5.2870   -9.2570 C.ar   47  HIS47       0.1154
     64  CE1       18.5520    4.4190   -7.4240 C.ar   47  HIS47       0.1986
     65  NE2       19.3230    4.1610   -8.4550 N.ar   47  HIS47      -0.2212
     66  N         14.1430    4.4560   -8.7200 N.3    52  GLN52      -0.1231
     67  CA        14.4180    3.0580   -9.1180 C.3    52  GLN52       0.1698
     68  C         14.0390    2.2070   -7.9350 C.2    52  GLN52       0.2592
     69  O         14.0080    2.7610   -6.8380 O.2    52  GLN52      -0.2718
     70  CB        15.8970    2.7780   -9.2680 C.3    52  GLN52       0.0381
     71  CG        16.4860    3.8140   -9.9160 C.3    52  GLN52       0.0905
     72  CD        16.3630    3.7320  -11.3970 C.2    52  GLN52       0.2608
     73  OE1       17.3580    3.6330  -12.0690 O.2    52  GLN52      -0.2717
     74  NE2       15.1920    3.8890  -11.9070 N.am   52  GLN52      -0.0878
     75  N         13.8070    0.9190   -8.2010 N.am   53  HIS53      -0.1962
     76  CA        13.3030   -0.0780   -7.3400 C.3    53  HIS53       0.1787
     77  C         14.1900   -1.3130   -7.2480 C.2    53  HIS53       0.2620
     78  O         14.7350   -1.7650   -8.2460 O.2    53  HIS53      -0.2715
     79  CB        11.9020   -0.3710   -7.8210 C.3    53  HIS53       0.0785
     80  CG        11.0830    0.8950   -7.9660 C.ar   53  HIS53       0.0821
     81  ND1       10.5180    1.5600   -6.9280 N.ar   53  HIS53      -0.2267
     82  CD2       10.7680    1.6300   -9.0590 C.ar   53  HIS53       0.1154
     83  CE1        9.8650    2.6230   -7.3640 C.ar   53  HIS53       0.1986
     84  NE2        9.9980    2.6830   -8.6530 N.ar   53  HIS53      -0.2212
     85  N         14.3390   -1.8190   -6.0230 N.am   54  PHE54      -0.1960
     86  CA        15.2440   -2.8980   -5.6990 C.3    54  PHE54       0.1771
     87  C         14.4100   -3.9950   -4.9920 C.2    54  PHE54       0.2619
     88  O         13.6050   -3.6980   -4.1360 O.2    54  PHE54      -0.2715
     89  CB        16.3480   -2.4140   -4.7920 C.3    54  PHE54       0.0574
     90  CG        17.1710   -1.3420   -5.4200 C.ar   54  PHE54      -0.0200
     91  CD1       16.7340   -0.0220   -5.3980 C.ar   54  PHE54      -0.0042
     92  CD2       18.3000   -1.6700   -6.0880 C.ar   54  PHE54      -0.0042
     93  CE1       17.4260    0.9510   -5.9670 C.ar   54  PHE54      -0.0003
     94  CE2       19.0760   -0.6860   -6.6270 C.ar   54  PHE54      -0.0003
     95  CZ        18.6330    0.6550   -6.6480 C.ar   54  PHE54      -0.0000
     96  N         14.5010   -5.1920   -5.4980 N.am   55  LYS55      -0.1977
     97  CA        13.9090   -6.3050   -4.8530 C.3    55  LYS55       0.1596
     98  C         14.6700   -6.8690   -3.6190 C.2    55  LYS55       0.2287
     99  O         15.7940   -7.1920   -3.6350 O.2    55  LYS55      -0.2864
    100  CB        13.6290   -7.4290   -5.8910 C.3    55  LYS55       0.0298
    101  CG        13.0180   -8.6810   -5.2330 C.3    55  LYS55       0.0038
    102  CD        12.2070   -9.6470   -6.2020 C.3    55  LYS55       0.0206
    103  CE        11.0460   -9.1080   -6.9750 C.3    55  LYS55       0.1093
    104  NZ         9.7650   -9.0290   -6.1700 N.3    55  LYS55      -0.1314
    105  N         15.8000   -9.6660   -1.5530 N.3    57  MET57      -0.1245
    106  CA        15.9740  -11.1000   -1.6940 C.3    57  MET57       0.1570
    107  C         16.2330  -11.7230   -0.3120 C.2    57  MET57       0.2261
    108  O         16.5560  -11.0580    0.5770 O.2    57  MET57      -0.2867
    109  CB        17.1520  -11.4470   -2.5780 C.3    57  MET57       0.0387
    110  CG        17.3380  -10.5700   -3.7270 C.3    57  MET57       0.0595
    111  SD        16.0510  -11.1480   -4.8140 S.3    57  MET57      -0.1393
    112  CE        16.4770  -12.9810   -5.2120 C.3    57  MET57       0.0692
    113  N         20.4640   -7.4620   -1.1800 N.3    66  LEU66      -0.1231
    114  CA        20.0890   -6.8120   -2.5090 C.3    66  LEU66       0.1693
    115  C         20.9560   -7.4040   -3.5800 C.2    66  LEU66       0.2592
    116  O         20.4790   -7.6550   -4.7460 O.2    66  LEU66      -0.2718
    117  CB        20.1990   -5.2530   -2.5660 C.3    66  LEU66       0.0284
    118  CG        19.3140   -4.6390   -1.5390 C.3    66  LEU66       0.0019
    119  CD1       19.3140   -3.1040   -1.6460 C.3    66  LEU66       0.0001
    120  CD2       17.9530   -5.0940   -1.5200 C.3    66  LEU66       0.0001
    121  N         22.2020   -7.7360   -3.1600 N.am   67  TRP67      -0.1976
    122  CA        23.2720   -7.9500   -4.1890 C.3    67  TRP67       0.1640
    123  C         24.0970   -9.0930   -3.6620 C.2    67  TRP67       0.2290
    124  O         23.6450  -10.2440   -3.8330 O.2    67  TRP67      -0.2864
    125  CB        24.0030   -6.6530   -4.6050 C.3    67  TRP67       0.0576
    126  CG        23.2050   -5.5080   -5.1650 C.ar   67  TRP67       0.0006
    127  CD1       22.8790   -4.2770   -4.5200 C.ar   67  TRP67       0.0946
    128  CD2       22.9470   -5.2460   -6.5740 C.ar   67  TRP67       0.0152
    129  NE1       22.3260   -3.3840   -5.4230 N.ar   67  TRP67      -0.2442
    130  CE2       22.3550   -3.9710   -6.6820 C.ar   67  TRP67       0.0810
    131  CE3       23.1510   -5.9950   -7.7670 C.ar   67  TRP67       0.0012
    132  CZ2       21.9860   -3.4620   -7.8930 C.ar   67  TRP67       0.0191
    133  CZ3       22.6650   -5.5280   -8.9470 C.ar   67  TRP67       0.0001
    134  CH2       22.1280   -4.2740   -9.0140 C.ar   67  TRP67       0.0015
    135  N         23.0860    1.4290   -5.7000 N.3    87  SER87      -0.1217
    136  CA        23.0130    1.1120   -7.1460 C.3    87  SER87       0.1889
    137  C         24.4380    0.8660   -7.6990 C.2    87  SER87       0.2288
    138  O         25.3830    1.5380   -7.2710 O.2    87  SER87      -0.2866
    139  CB        22.2880    2.2240   -7.8830 C.3    87  SER87       0.2089
    140  OG        23.0540    2.5860   -9.0350 O.3    87  SER87      -0.2183
    141  N         25.1780    1.0790  -10.9550 N.3    89  GLN89      -0.1245
    142  CA        25.2530    1.8810  -12.1910 C.3    89  GLN89       0.1566
    143  C         25.5740    3.3680  -11.9150 C.2    89  GLN89       0.2260
    144  O         26.4340    4.0390  -12.5560 O.2    89  GLN89      -0.2867
    145  CB        23.9040    1.7180  -12.9170 C.3    89  GLN89       0.0367
    146  CG        23.7370    0.3700  -13.7150 C.3    89  GLN89       0.0905
    147  CD        22.1920   -0.0620  -13.9280 C.2    89  GLN89       0.2608
    148  OE1       21.8540   -1.2490  -14.2010 O.2    89  GLN89      -0.2717
    149  NE2       21.2800    0.9360  -13.8300 N.am   89  GLN89      -0.0878
@<TRIPOS>BOND
     1   148   147    2
     2   147   149   am
     3   147   146    1
     4   146   145    1
     5   145   142    1
     6   144   143    2
     7   142   143    1
     8   142   141    1
     9    73    72    2
    10    11     9    1
    11    74    72   am
    12    72    71    1
    13     9     8    2
    14     9    10    1
    15     8     7    1
    16     7     6    1
    17    71    70    1
    18    42    43    1
    19    42    39    1
    20    70    67    1
    21    63    61   ar
    22    63    65   ar
    23    60    61    1
    24    60    57    1
    25    67    66    1
    26    67    68    1
    27    82    84   ar
    28    82    80   ar
    29   140   139    1
    30   134   133   ar
    31   134   132   ar
    32     6     5    1
    33   133   131   ar
    34    41    40    2
    35    61    62   ar
    36    84    83   ar
    37    58    59    1
    38    58    57    1
    39    39    40    1
    40    39    38    1
    41    65    64   ar
    42    78    77    2
    43    75    68   am
    44    75    76    1
    45    40    44   am
    46     5     2    1
    47    57    56    1
    48    80    79    1
    49    80    81   ar
    50    68    69    2
    51   132   130   ar
    52   139   136    1
    53    79    76    1
    54    49    48    1
    55    36    35    2
    56   131   128   ar
    57   137   138    2
    58   137   136    1
    59    62    64   ar
    60    35    37   am
    61    35    34    1
    62    38    31   am
    63     4     3    2
    64     3     2    1
    65    83    81   ar
    66    76    77    1
    67    77    85   am
    68   136   135    1
    69    34    33    1
    70   103   102    1
    71   103   104    1
    72     2     1    1
    73    44    45    1
    74    31    32    2
    75    31    30    1
    76   130   128   ar
    77   130   129   ar
    78    95    94   ar
    79    95    93   ar
    80    94    92   ar
    81   128   126   ar
    82    45    48    1
    83    45    46    1
    84    33    30    1
    85   102   101    1
    86    92    90   ar
    87    85    86    1
    88    93    91   ar
    89    22    20    1
    90   100   101    1
    91   100    97    1
    92    86    87    1
    93    86    89    1
    94    30    29    1
    95    96    87   am
    96    96    97    1
    97    28    27    1
    98   129   127   ar
    99    90    91   ar
   100    90    89    1
   101   112   111    1
   102   126   125    1
   103   126   127   ar
   104    46    47    1
   105    29    25   am
   106    87    88    2
   107    21    20    1
   108    20    19    2
   109    97    98    1
   110   111   110    1
   111   116   115    2
   112   125   122    1
   113    55    54    1
   114   122   123    1
   115   122   121    1
   116    27    24    1
   117    25    26    2
   118    25    24    1
   119    19    18    1
   120   124   123    2
   121   110   109    1
   122    99    98    2
   123   115   121   am
   124   115   114    1
   125    24    23    1
   126    54    51    1
   127    18    17    1
   128   109   106    1
   129   117   114    1
   130   117   118    1
   131   114   113    1
   132    51    52    1
   133    51    50    1
   134    52    53    2
   135    17    16    1
   136   106   105    1
   137   106   107    1
   138   119   118    1
   139   118   120    1
   140    16    13    1
   141   107   108    2
   142    15    14    2
   143    14    13    1
   144    13    12    1
