@<TRIPOS>MOLECULE
tmp/1r20B00.pdb
 194 181 0 0 0
SMALL
GASTEIGER

@<TRIPOS>ATOM
      1  N         66.4490   30.9430    3.1010 N.3    36  PHE36      -0.1241
      2  CA        65.2100   30.7340    3.8180 C.3    36  PHE36       0.1605
      3  C         64.8600   29.2660    3.6570 C.2    36  PHE36       0.2264
      4  O         64.0890   28.7220    4.4310 O.2    36  PHE36      -0.2867
      5  CB        64.1320   31.6310    3.1860 C.3    36  PHE36       0.0534
      6  CG        62.7080   31.2380    3.5110 C.ar   36  PHE36      -0.0203
      7  CD1       62.1710   30.0330    3.0670 C.ar   36  PHE36      -0.0042
      8  CD2       61.8930   32.0900    4.2460 C.ar   36  PHE36      -0.0042
      9  CE1       60.8470   29.6840    3.3530 C.ar   36  PHE36      -0.0003
     10  CE2       60.5740   31.7490    4.5330 C.ar   36  PHE36      -0.0003
     11  CZ        60.0520   30.5440    4.0860 C.ar   36  PHE36      -0.0000
     12  N         66.5380   26.9870    6.8360 N.3    39  ILE39      -0.1231
     13  CA        65.6840   27.1790    7.9910 C.3    39  ILE39       0.1692
     14  C         64.4470   26.3190    7.7950 C.2    39  ILE39       0.2592
     15  O         64.0750   25.5170    8.6470 O.2    39  ILE39      -0.2718
     16  CB        65.2150   28.6230    8.0330 C.3    39  ILE39       0.0266
     17  CG1       66.3980   29.5650    8.1880 C.3    39  ILE39       0.0019
     18  CG2       64.2330   28.7970    9.1300 C.3    39  ILE39       0.0020
     19  CD1       66.0020   31.0170    8.2010 C.3    39  ILE39       0.0001
     20  N         63.8330   26.5200    6.6320 N.am   40  THR40      -0.1953
     21  CA        62.6100   25.8530    6.1840 C.3    40  THR40       0.1897
     22  C         62.6540   24.3520    5.9730 C.2    40  THR40       0.2313
     23  O         61.7250   23.6440    6.3670 O.2    40  THR40      -0.2863
     24  CB        62.0980   26.4800    4.8690 C.3    40  THR40       0.1794
     25  OG1       61.1020   27.4690    5.1580 O.3    40  THR40      -0.2208
     26  CG2       61.4950   25.4210    3.9690 C.3    40  THR40       0.0378
     27  N         63.2770   22.6010    9.5350 N.3    43  THR43      -0.1218
     28  CA        61.9880   22.6150   10.2420 C.3    43  THR43       0.1862
     29  C         61.1070   21.4510    9.8670 C.2    43  THR43       0.2287
     30  O         60.4880   20.8120   10.7150 O.2    43  THR43      -0.2866
     31  CB        61.2130   23.9150    9.9680 C.3    43  THR43       0.1770
     32  OG1       61.9630   25.0330   10.4550 O.3    43  THR43      -0.2211
     33  CG2       59.8840   23.8850   10.6430 C.3    43  THR43       0.0375
     34  N         54.1590   22.9080   16.7050 N.3    77  SER77      -0.1217
     35  CA        54.9030   24.1780   16.6160 C.3    77  SER77       0.1889
     36  C         55.5540   24.5370   17.9490 C.2    77  SER77       0.2288
     37  O         56.7100   25.0000   17.9750 O.2    77  SER77      -0.2866
     38  CB        54.0150   25.3470   16.1580 C.3    77  SER77       0.2089
     39  OG        53.1510   25.8080   17.1780 O.3    77  SER77      -0.2183
     40  N         58.4450   22.1410   19.0410 N.3    80  MET80      -0.1230
     41  CA        59.6570   22.3040   18.2500 C.3    80  MET80       0.1702
     42  C         60.5910   23.3280   18.9230 C.2    80  MET80       0.2592
     43  O         61.8020   23.1960   18.8930 O.2    80  MET80      -0.2718
     44  CB        59.2830   22.7400   16.8370 C.3    80  MET80       0.0401
     45  CG        60.1300   22.0890   15.7570 C.3    80  MET80       0.0596
     46  SD        60.4640   23.2700   14.4340 S.3    80  MET80      -0.1393
     47  CE        62.2680   23.4130   14.4390 C.3    80  MET80       0.0692
     48  N         60.0100   24.3560   19.5270 N.am   81  MET81      -0.1979
     49  CA        60.7740   25.3740   20.2330 C.3    81  MET81       0.1605
     50  C         61.5230   24.6550   21.3460 C.2    81  MET81       0.2287
     51  O         62.6730   24.9600   21.6200 O.2    81  MET81      -0.2864
     52  CB        59.8430   26.3940   20.8650 C.3    81  MET81       0.0413
     53  CG        58.8260   26.9290   19.9380 C.3    81  MET81       0.0598
     54  SD        59.4670   28.3810   19.1580 S.3    81  MET81      -0.1393
     55  CE        57.9770   29.0850   18.5320 C.3    81  MET81       0.0692
     56  N         64.5540   22.9470   19.8520 N.3    84  VAL84      -0.1245
     57  CA        65.6150   23.8380   19.4530 C.3    84  VAL84       0.1561
     58  C         66.2340   24.3960   20.7090 C.2    84  VAL84       0.2260
     59  O         67.4200   24.3130   20.8790 O.2    84  VAL84      -0.2867
     60  CB        65.1570   24.9380   18.5160 C.3    84  VAL84       0.0252
     61  CG1       66.2560   25.9540   18.3640 C.3    84  VAL84       0.0019
     62  CG2       64.8770   24.3500   17.1610 C.3    84  VAL84       0.0019
     63  N         69.4510   27.3180   12.0430 N.3   103  TYR103     -0.1241
     64  CA        68.9560   28.5590   12.6300 C.3   103  TYR103      0.1605
     65  C         70.0390   29.2710   13.3900 C.2   103  TYR103      0.2264
     66  O         70.4570   28.8030   14.4420 O.2   103  TYR103     -0.2867
     67  CB        67.8160   28.2770   13.5840 C.3   103  TYR103      0.0534
     68  CG        67.0430   27.0240   13.2740 C.ar  103  TYR103     -0.0201
     69  CD1       67.3880   25.8230   13.8520 C.ar  103  TYR103     -0.0009
     70  CD2       65.9170   27.0490   12.4520 C.ar  103  TYR103     -0.0009
     71  CE1       66.6330   24.6850   13.6370 C.ar  103  TYR103      0.0417
     72  CE2       65.1520   25.8850   12.2370 C.ar  103  TYR103      0.0417
     73  CZ        65.5260   24.7210   12.8420 C.ar  103  TYR103      0.1957
     74  OH        64.7920   23.5810   12.7000 O.3   103  TYR103     -0.2866
     75  N         68.8980   33.6990    9.6920 N.3   108  TYR108     -0.1241
     76  CA        67.6880   34.3940   10.1040 C.3   108  TYR108      0.1605
     77  C         67.7490   35.8760    9.7250 C.2   108  TYR108      0.2264
     78  O         66.7500   36.4300    9.2780 O.2   108  TYR108     -0.2867
     79  CB        67.4460   34.2150   11.6180 C.3   108  TYR108      0.0534
     80  CG        66.4230   33.1430   11.9060 C.ar  108  TYR108     -0.0201
     81  CD1       66.7600   31.7960   11.9030 C.ar  108  TYR108     -0.0009
     82  CD2       65.0890   33.4700   12.0410 C.ar  108  TYR108     -0.0009
     83  CE1       65.7830   30.8070   12.0130 C.ar  108  TYR108      0.0417
     84  CE2       64.1090   32.4950   12.1450 C.ar  108  TYR108      0.0417
     85  CZ        64.4530   31.1750   12.1290 C.ar  108  TYR108      0.1957
     86  OH        63.4430   30.2450   12.2060 O.3   108  TYR108     -0.2866
     87  N         64.1350   37.9430    8.6400 N.3   113  MET113     -0.1245
     88  CA        63.3260   37.6520    9.8200 C.3   113  MET113      0.1570
     89  C         64.1700   38.0890   11.0190 C.2   113  MET113      0.2261
     90  O         64.1910   37.4420   12.0560 O.2   113  MET113     -0.2867
     91  CB        63.0270   36.1540    9.9080 C.3   113  MET113      0.0387
     92  CG        62.4400   35.5570    8.6480 C.3   113  MET113      0.0595
     93  SD        61.5760   33.9710    8.9090 S.3   113  MET113     -0.1393
     94  CE        62.9090   32.7190    8.6230 C.3   113  MET113      0.0692
     95  N         62.9780   37.9910   14.7670 N.3   116  VAL116     -0.1245
     96  CA        62.6470   36.6740   15.3080 C.3   116  VAL116      0.1561
     97  C         63.7210   35.9020   16.0450 C.2   116  VAL116      0.2260
     98  O         63.5200   35.5100   17.1810 O.2   116  VAL116     -0.2867
     99  CB        62.0660   35.7500   14.2250 C.3   116  VAL116      0.0252
    100  CG1       61.7650   34.3820   14.7960 C.3   116  VAL116      0.0019
    101  CG2       60.8000   36.3460   13.6870 C.3   116  VAL116      0.0019
    102  N         64.0150   36.8520   19.6790 N.3   119  ASP119     -0.1225
    103  CA        63.0270   36.2890   20.5850 C.3   119  ASP119      0.1805
    104  C         63.2260   34.8280   20.8920 C.2   119  ASP119      0.2597
    105  O         63.0490   34.4060   22.0220 O.2   119  ASP119     -0.2718
    106  CB        61.6420   36.4980   20.0080 C.3   119  ASP119      0.1424
    107  CG        61.2270   37.9630   20.0490 C.2   119  ASP119      0.3668
    108  OD1       62.1460   38.8320   20.0240 O.co2 119  ASP119     -0.2456
    109  OD2       59.9950   38.2450   20.1040 O.co2 119  ASP119     -0.2456
    110  N         63.5770   34.0410   19.8920 N.am  120  LEU120     -0.1979
    111  CA        63.7910   32.6260   20.1170 C.3   120  LEU120      0.1596
    112  C         64.8110   32.4680   21.2530 C.2   120  LEU120      0.2287
    113  O         64.5530   31.7850   22.2510 O.2   120  LEU120     -0.2864
    114  CB        64.3150   31.9540   18.8280 C.3   120  LEU120      0.0297
    115  CG        64.5510   30.4450   18.9510 C.3   120  LEU120      0.0022
    116  CD1       63.3150   29.7690   18.5590 C.3   120  LEU120      0.0001
    117  CD2       65.7040   29.9410   18.1030 C.3   120  LEU120      0.0001
    118  N         54.9170   31.7720   21.9060 N.3   200  LEU200     -0.1245
    119  CA        55.8890   31.4920   20.8540 C.3   200  LEU200      0.1561
    120  C         55.2520   30.6590   19.7990 C.2   200  LEU200      0.2260
    121  O         55.5030   30.8340   18.6320 O.2   200  LEU200     -0.2867
    122  CB        57.0490   30.7280   21.4310 C.3   200  LEU200      0.0270
    123  CG        58.3770   31.4540   21.3970 C.3   200  LEU200      0.0019
    124  CD1       58.2850   32.8200   22.0480 C.3   200  LEU200      0.0001
    125  CD2       59.3990   30.5380   22.0680 C.3   200  LEU200      0.0001
    126  N         53.0890   33.0940   18.1270 N.3   203  GLN203     -0.1231
    127  CA        53.8540   34.1370   17.4790 C.3   203  GLN203      0.1698
    128  C         54.2640   33.5650   16.1110 C.2   203  GLN203      0.2592
    129  O         54.4800   34.2970   15.1430 O.2   203  GLN203     -0.2718
    130  CB        55.0760   34.4560   18.3380 C.3   203  GLN203      0.0381
    131  CG        55.3920   35.9120   18.4210 C.3   203  GLN203      0.0905
    132  CD        56.4680   36.1980   19.4210 C.2   203  GLN203      0.2608
    133  OE1       56.3910   35.7700   20.5730 O.2   203  GLN203     -0.2717
    134  NE2       57.4900   36.9390   18.9980 N.am  203  GLN203     -0.0878
    135  N         54.3410   32.2370   16.0650 N.am  204  ASN204     -0.1974
    136  CA        54.7090   31.4570   14.8860 C.3   204  ASN204      0.1688
    137  C         53.6540   31.5630   13.7670 C.2   204  ASN204      0.2292
    138  O         53.9170   32.1250   12.6990 O.2   204  ASN204     -0.2864
    139  CB        54.8730   30.0020   15.3200 C.3   204  ASN204      0.1181
    140  CG        55.3860   29.1080   14.2190 C.2   204  ASN204      0.2629
    141  OD1       55.2540   27.8890   14.2860 O.2   204  ASN204     -0.2716
    142  ND2       55.9860   29.7020   13.2100 N.am  204  ASN204     -0.0877
    143  N         53.4810   34.2440   11.9250 N.3   207  MET207     -0.1230
    144  CA        54.6460   34.4390   11.0450 C.3   207  MET207      0.1702
    145  C         54.4260   33.7920    9.6960 C.2   207  MET207      0.2592
    146  O         54.7820   34.3590    8.6710 O.2   207  MET207     -0.2718
    147  CB        55.9120   33.8430   11.6100 C.3   207  MET207      0.0401
    148  CG        57.1070   33.9790   10.6660 C.3   207  MET207      0.0596
    149  SD        57.9000   35.5880   10.7370 S.3   207  MET207     -0.1393
    150  CE        56.6880   36.5890    9.9400 C.3   207  MET207      0.0692
    151  N         53.9020   32.5720    9.6950 N.am  208  CYS208     -0.1970
    152  CA        53.5860   31.9370    8.4280 C.3   208  CYS208      0.1712
    153  C         52.6980   32.9830    7.7650 C.2   208  CYS208      0.2296
    154  O         53.0960   33.5760    6.7570 O.2   208  CYS208     -0.2864
    155  CB        52.7900   30.6550    8.6270 C.3   208  CYS208      0.0983
    156  SG        53.7530   29.3770    9.4100 S.3   208  CYS208     -0.0798
    157  N         54.5600   35.6460    6.0300 N.3   211  LEU211     -0.1245
    158  CA        55.3710   35.2260    4.8890 C.3   211  LEU211      0.1561
    159  C         54.4380   34.7940    3.7860 C.2   211  LEU211      0.2260
    160  O         54.7140   35.0070    2.6170 O.2   211  LEU211     -0.2867
    161  CB        56.3050   34.0640    5.2680 C.3   211  LEU211      0.0270
    162  CG        57.4040   34.3160    6.3270 C.3   211  LEU211      0.0019
    163  CD1       58.2970   33.0770    6.4240 C.3   211  LEU211      0.0001
    164  CD2       58.2380   35.5520    5.9780 C.3   211  LEU211      0.0001
    165  N         56.6230   28.7570    1.2750 N.3   218  LEU218     -0.1245
    166  CA        56.4200   27.9660    2.4650 C.3   218  LEU218      0.1561
    167  C         55.8460   26.6230    2.0120 C.2   218  LEU218      0.2260
    168  O         54.7830   26.5750    1.4000 O.2   218  LEU218     -0.2867
    169  CB        55.4550   28.7110    3.3960 C.3   218  LEU218      0.0270
    170  CG        55.4060   28.5610    4.9270 C.3   218  LEU218      0.0019
    171  CD1       55.1700   29.9480    5.5230 C.3   218  LEU218      0.0001
    172  CD2       54.3010   27.5950    5.3580 C.3   218  LEU218      0.0001
    173  N         54.2820   22.5300    6.0980 N.3   222  LEU222     -0.1245
    174  CA        54.1490   23.4670    7.1900 C.3   222  LEU222      0.1561
    175  C         52.7670   24.0690    7.0580 C.2   222  LEU222      0.2260
    176  O         51.9310   23.8690    7.9350 O.2   222  LEU222     -0.2867
    177  CB        55.2180   24.5450    7.0950 C.3   222  LEU222      0.0270
    178  CG        56.6120   23.9310    7.1050 C.3   222  LEU222      0.0019
    179  CD1       57.6340   25.0180    7.1280 C.3   222  LEU222      0.0001
    180  CD2       56.7710   23.0230    8.3050 C.3   222  LEU222      0.0001
    181  N         50.6610   23.8010   10.6120 N.3   226  TRP226     -0.1241
    182  CA        50.3170   25.0470   11.2540 C.3   226  TRP226      0.1605
    183  C         49.5400   25.8810   10.2410 C.2   226  TRP226      0.2264
    184  O         49.8660   27.0470   10.0190 O.2   226  TRP226     -0.2867
    185  CB        51.5820   25.8140   11.6480 C.3   226  TRP226      0.0550
    186  CG        52.7310   24.9950   12.1410 C.ar  226  TRP226      0.0003
    187  CD1       52.6840   23.9390   12.9940 C.ar  226  TRP226      0.0946
    188  CD2       54.1040   25.1960   11.8260 C.ar  226  TRP226      0.0152
    189  NE1       53.9470   23.4590   13.2310 N.ar  226  TRP226     -0.2442
    190  CE2       54.8390   24.2140   12.5260 C.ar  226  TRP226      0.0810
    191  CE3       54.7890   26.1150   11.0260 C.ar  226  TRP226      0.0012
    192  CZ2       56.2310   24.1170   12.4370 C.ar  226  TRP226      0.0191
    193  CZ3       56.1810   26.0190   10.9390 C.ar  226  TRP226      0.0001
    194  CH2       56.8830   25.0260   11.6420 C.ar  226  TRP226      0.0015
@<TRIPOS>BOND
     1   165   166    1
     2   168   167    2
     3   167   166    1
     4   166   169    1
     5   160   159    2
     6     7     9   ar
     7     7     6   ar
     8     1     2    1
     9     5     6    1
    10     5     2    1
    11     9    11   ar
    12   169   170    1
    13     6     8   ar
    14     3     2    1
    15     3     4    2
    16   159   158    1
    17    26    24    1
    18    11    10   ar
    19     8    10   ar
    20    24    25    1
    21    24    21    1
    22   158   161    1
    23   158   157    1
    24   170   172    1
    25   170   171    1
    26   161   162    1
    27    22    21    1
    28    22    23    2
    29   164   162    1
    30   173   174    1
    31    21    20    1
    32   162   163    1
    33    20    14   am
    34   154   153    2
    35    12    13    1
    36   175   174    1
    37   175   176    2
    38   177   178    1
    39   177   174    1
    40   178   179    1
    41   178   180    1
    42   153   152    1
    43    14    13    1
    44    14    15    2
    45    13    16    1
    46    16    17    1
    47    16    18    1
    48    17    19    1
    49   152   155    1
    50   152   151    1
    51    94    93    1
    52   155   156    1
    53    87    88    1
    54    92    93    1
    55    92    91    1
    56   146   145    2
    57    78    77    2
    58    27    28    1
    59    75    76    1
    60   151   145   am
    61   145   144    1
    62    77    76    1
    63    88    91    1
    64    88    89    1
    65    29    28    1
    66    29    30    2
    67   150   149    1
    68    31    28    1
    69    31    32    1
    70    31    33    1
    71   184   183    2
    72    76    79    1
    73   183   182    1
    74   181   182    1
    75   148   149    1
    76   148   147    1
    77   193   191   ar
    78   193   194   ar
    79    89    90    2
    80   191   188   ar
    81   144   147    1
    82   144   143    1
    83   182   185    1
    84    79    80    1
    85   194   192   ar
    86   185   186    1
    87   188   186   ar
    88   188   190   ar
    89    81    80   ar
    90    81    83   ar
    91    80    82   ar
    92    83    85   ar
    93    82    84   ar
    94    63    64    1
    95    85    84   ar
    96    85    86    1
    97   186   187   ar
    98    72    70   ar
    99    72    73   ar
   100   192   190   ar
   101    70    68   ar
   102   190   189   ar
   103    64    65    1
   104    64    67    1
   105   138   137    2
   106    74    73    1
   107    73    71   ar
   108   187   189   ar
   109   142   140   am
   110    68    67    1
   111    68    69   ar
   112    65    66    2
   113    71    69   ar
   114   101    99    1
   115   137   136    1
   116   140   141    2
   117   140   139    1
   118    99   100    1
   119    99    96    1
   120    46    47    1
   121    46    45    1
   122    95    96    1
   123   136   139    1
   124   136   135    1
   125   129   128    2
   126    96    97    1
   127    45    44    1
   128    97    98    2
   129   135   128   am
   130   128   127    1
   131    38    35    1
   132    38    39    1
   133    35    34    1
   134    35    36    1
   135    44    41    1
   136    62    60    1
   137   127   126    1
   138   127   130    1
   139    36    37    2
   140   117   115    1
   141    41    42    1
   142    41    40    1
   143   130   131    1
   144    61    60    1
   145   131   132    1
   146    60    57    1
   147    55    54    1
   148   116   115    1
   149   121   120    2
   150   114   115    1
   151   114   111    1
   152    43    42    2
   153    42    48   am
   154   134   132   am
   155    54    53    1
   156   132   133    2
   157    57    56    1
   158    57    58    1
   159    48    49    1
   160   102   103    1
   161   120   119    1
   162   110   111    1
   163   110   104   am
   164    53    52    1
   165   106   107    1
   166   106   103    1
   167   108   107   ar
   168   107   109   ar
   169   111   112    1
   170    49    52    1
   171    49    50    1
   172   103   104    1
   173    58    59    2
   174   119   122    1
   175   119   118    1
   176   104   105    2
   177   112   113    2
   178    50    51    2
   179   123   122    1
   180   123   124    1
   181   123   125    1
