@<TRIPOS>MOLECULE
tmp/1r2jA00.pdb
 198 191 0 0 0
SMALL
GASTEIGER

@<TRIPOS>ATOM
      1  N         56.5130  -29.5570   31.2860 N.3    75  SER75      -0.1217
      2  CA        56.0690  -30.0830   32.5740 C.3    75  SER75       0.1889
      3  C         56.7890  -31.3990   32.8680 C.2    75  SER75       0.2288
      4  O         57.2790  -31.6180   33.9770 O.2    75  SER75      -0.2866
      5  CB        54.5590  -30.3080   32.5630 C.3    75  SER75       0.2089
      6  OG        53.8680  -29.0790   32.4290 O.3    75  SER75      -0.2183
      7  N         60.4310  -30.6570   33.5330 N.3    78  MET78      -0.1245
      8  CA        60.5990  -29.9520   34.7920 C.3    78  MET78       0.1570
      9  C         60.4540  -30.9220   35.9580 C.2    78  MET78       0.2261
     10  O         61.1970  -30.8430   36.9290 O.2    78  MET78      -0.2867
     11  CB        59.5730  -28.8220   34.9150 C.3    78  MET78       0.0387
     12  CG        59.7570  -27.9610   36.1680 C.3    78  MET78       0.0595
     13  SD        59.1090  -26.2700   36.0170 S.3    78  MET78      -0.1393
     14  CE        57.3720  -26.5550   36.1640 C.3    78  MET78       0.0692
     15  N         53.8550  -30.4660   37.4470 N.3   106  VAL106     -0.1231
     16  CA        54.4870  -29.8090   38.5800 C.3   106  VAL106      0.1692
     17  C         53.6040  -28.6550   39.0480 C.2   106  VAL106      0.2593
     18  O         53.3870  -27.7020   38.3090 O.2   106  VAL106     -0.2718
     19  CB        55.8670  -29.2520   38.1820 C.3   106  VAL106      0.0266
     20  CG1       56.6200  -28.7910   39.4200 C.3   106  VAL106      0.0020
     21  CG2       56.6510  -30.3090   37.4210 C.3   106  VAL106      0.0020
     22  N         53.1000  -28.7440   40.2740 N.am  107  GLY107     -0.1942
     23  CA        52.2450  -27.6940   40.7940 C.3   107  GLY107      0.2014
     24  C         52.8010  -27.0230   42.0340 C.2   107  GLY107      0.2639
     25  O         53.0140  -27.6660   43.0640 O.2   107  GLY107     -0.2714
     26  N         53.0520  -25.7250   41.9320 N.am  108  PHE108     -0.1959
     27  CA        53.5620  -24.9530   43.0570 C.3   108  PHE108      0.1771
     28  C         52.7040  -23.7090   43.2500 C.2   108  PHE108      0.2620
     29  O         52.5370  -23.2120   44.3650 O.2   108  PHE108     -0.2715
     30  CB        55.0340  -24.5730   42.8310 C.3   108  PHE108      0.0574
     31  CG        55.3470  -24.1100   41.4280 C.ar  108  PHE108     -0.0200
     32  CD1       55.1420  -22.7890   41.0490 C.ar  108  PHE108     -0.0042
     33  CD2       55.8400  -25.0070   40.4830 C.ar  108  PHE108     -0.0042
     34  CE1       55.4250  -22.3640   39.7400 C.ar  108  PHE108     -0.0003
     35  CE2       56.1250  -24.5980   39.1760 C.ar  108  PHE108     -0.0003
     36  CZ        55.9170  -23.2740   38.8020 C.ar  108  PHE108     -0.0000
     37  N         52.1390  -23.2210   42.1550 N.am  109  SER109     -0.1936
     38  CA        51.2990  -22.0390   42.2090 C.3   109  SER109      0.2055
     39  C         49.9700  -22.2640   42.9390 C.2   109  SER109      0.2643
     40  O         49.3960  -23.3480   42.8890 O.2   109  SER109     -0.2714
     41  CB        51.0200  -21.5450   40.7950 C.3   109  SER109      0.2130
     42  OG        50.0690  -20.5000   40.8550 O.3   109  SER109     -0.2179
     43  N         49.4930  -21.2280   43.6210 N.am  110  GLU110     -0.1963
     44  CA        48.2280  -21.2970   44.3450 C.3   110  GLU110      0.1733
     45  C         47.4180  -20.0290   44.0900 C.2   110  GLU110      0.2616
     46  O         47.9460  -19.0350   43.5890 O.2   110  GLU110     -0.2715
     47  CB        48.4740  -21.4710   45.8500 C.3   110  GLU110      0.0429
     48  CG        49.2690  -22.7280   46.1990 C.3   110  GLU110      0.1163
     49  CD        49.3270  -23.0120   47.6940 C.2   110  GLU110      0.3649
     50  OE1       50.1520  -23.8540   48.1040 O.co2 110  GLU110     -0.2457
     51  OE2       48.5480  -22.4000   48.4560 O.co2 110  GLU110     -0.2457
     52  N         46.1370  -20.0700   44.4410 N.am  111  ARG111     -0.1977
     53  CA        45.2440  -18.9350   44.2360 C.3   111  ARG111      0.1597
     54  C         45.8290  -17.6200   44.7570 C.2   111  ARG111      0.2287
     55  O         45.7330  -16.5860   44.0990 O.2   111  ARG111     -0.2864
     56  CB        43.8930  -19.2060   44.9110 C.3   111  ARG111      0.0334
     57  CG        42.6950  -18.6650   44.1470 C.3   111  ARG111      0.0492
     58  CD        42.5090  -19.3980   42.8210 C.3   111  ARG111      0.2205
     59  NE        41.3330  -18.9340   42.0860 N.pl3 111  ARG111     -0.0865
     60  CZ        40.8290  -19.5450   41.0170 C.cat 111  ARG111      0.5346
     61  NH1       41.3940  -20.6510   40.5570 N.pl3 111  ARG111      0.1354
     62  NH2       39.7640  -19.0460   40.4020 N.pl3 111  ARG111      0.1354
     63  N         51.1180  -16.4540   43.2830 N.3   114  GLY114     -0.1210
     64  CA        51.4520  -16.5430   41.8720 C.3   114  GLY114      0.1956
     65  C         52.8970  -16.1420   41.6700 C.2   114  GLY114      0.2612
     66  O         53.7910  -16.9840   41.6630 O.2   114  GLY114     -0.2717
     67  N         53.1340  -14.8490   41.5070 N.am  115  SER115     -0.1952
     68  CA        54.4900  -14.3620   41.3420 C.3   115  SER115      0.1924
     69  C         55.2080  -14.5370   42.6830 C.2   115  SER115      0.2314
     70  O         56.4210  -14.7260   42.7210 O.2   115  SER115     -0.2863
     71  CB        54.4760  -12.8860   40.9300 C.3   115  SER115      0.2116
     72  OG        53.8720  -12.7250   39.6540 O.3   115  SER115     -0.2180
     73  N         46.8800  -24.2860   41.5250 N.3   138  VAL138     -0.1231
     74  CA        46.0850  -23.7890   40.4150 C.3   138  VAL138      0.1692
     75  C         46.8400  -23.8410   39.0990 C.2   138  VAL138      0.2592
     76  O         48.0730  -23.8460   39.0760 O.2   138  VAL138     -0.2718
     77  CB        45.6490  -22.3290   40.6520 C.3   138  VAL138      0.0266
     78  CG1       44.7300  -22.2470   41.8610 C.3   138  VAL138      0.0020
     79  CG2       46.8840  -21.4430   40.8370 C.3   138  VAL138      0.0020
     80  N         46.0860  -23.8980   38.0050 N.am  139  TRP139     -0.1962
     81  CA        46.6620  -23.9120   36.6650 C.3   139  TRP139      0.1771
     82  C         47.7900  -24.8910   36.3820 C.2   139  TRP139      0.2620
     83  O         48.6280  -24.6200   35.5270 O.2   139  TRP139     -0.2715
     84  CB        47.1600  -22.5130   36.3140 C.3   139  TRP139      0.0590
     85  CG        46.1010  -21.6260   35.8200 C.ar  139  TRP139      0.0006
     86  CD1       45.3070  -20.7970   36.5560 C.ar  139  TRP139      0.0946
     87  CD2       45.6930  -21.4770   34.4610 C.ar  139  TRP139      0.0152
     88  NE1       44.4280  -20.1350   35.7350 N.ar  139  TRP139     -0.2442
     89  CE2       44.6440  -20.5340   34.4420 C.ar  139  TRP139      0.0810
     90  CE3       46.1120  -22.0500   33.2540 C.ar  139  TRP139      0.0012
     91  CZ2       44.0060  -20.1470   33.2590 C.ar  139  TRP139      0.0191
     92  CZ3       45.4790  -21.6660   32.0790 C.ar  139  TRP139      0.0001
     93  CH2       44.4360  -20.7210   32.0920 C.ar  139  TRP139      0.0015
     94  N         47.8190  -26.0250   37.0680 N.am  140  THR140     -0.1937
     95  CA        48.8830  -26.9990   36.8510 C.3   140  THR140      0.2028
     96  C         48.8570  -27.5760   35.4380 C.2   140  THR140      0.2642
     97  O         47.9130  -28.2680   35.0570 O.2   140  THR140     -0.2714
     98  CB        48.7800  -28.1500   37.8600 C.3   140  THR140      0.1808
     99  OG1       48.5820  -27.6050   39.1690 O.3   140  THR140     -0.2208
    100  CG2       50.0590  -28.9720   37.8610 C.3   140  THR140      0.0379
    101  N         49.9020  -27.2940   34.6640 N.am  141  THR141     -0.1950
    102  CA        49.9930  -27.7850   33.2910 C.3   141  THR141      0.1897
    103  C         50.1080  -29.3040   33.1900 C.2   141  THR141      0.2313
    104  O         50.8470  -29.9290   33.9510 O.2   141  THR141     -0.2863
    105  CB        51.2060  -27.1760   32.5610 C.3   141  THR141      0.1794
    106  OG1       51.0480  -25.7560   32.4730 O.3   141  THR141     -0.2208
    107  CG2       51.3240  -27.7620   31.1550 C.3   141  THR141      0.0378
    108  N         47.3350  -22.2640   24.9040 N.3   183  CYS183     -0.1235
    109  CA        47.8630  -23.5900   25.2240 C.3   183  CYS183      0.1677
    110  C         46.6680  -24.4390   25.6950 C.2   183  CYS183      0.2270
    111  O         46.7810  -25.2760   26.5930 O.2   183  CYS183     -0.2867
    112  CB        48.9230  -23.4830   26.3320 C.3   183  CYS183      0.0956
    113  SG        50.5590  -22.8500   25.7990 S.3   183  CYS183     -0.0801
    114  N         45.5050  -28.0850   31.5360 N.3   188  HIS188     -0.1241
    115  CA        45.6660  -27.3210   32.7740 C.3   188  HIS188      0.1621
    116  C         44.5790  -27.7490   33.7490 C.2   188  HIS188      0.2264
    117  O         43.4510  -28.0100   33.3510 O.2   188  HIS188     -0.2867
    118  CB        45.5020  -25.8220   32.5030 C.3   188  HIS188      0.0745
    119  CG        46.2800  -25.3340   31.3230 C.ar  188  HIS188      0.0817
    120  ND1       47.6510  -25.2070   31.3370 N.ar  188  HIS188     -0.2268
    121  CD2       45.8830  -24.9910   30.0770 C.ar  188  HIS188      0.1154
    122  CE1       48.0670  -24.8100   30.1480 C.ar  188  HIS188      0.1986
    123  NE2       47.0130  -24.6720   29.3650 N.ar  188  HIS188     -0.2212
    124  N         50.5860  -15.7690   26.8340 N.3   330  LEU330     -0.1231
    125  CA        50.6670  -16.5310   28.0770 C.3   330  LEU330      0.1693
    126  C         52.1130  -16.7460   28.5320 C.2   330  LEU330      0.2591
    127  O         52.3970  -16.7130   29.7260 O.2   330  LEU330     -0.2718
    128  CB        49.9400  -17.8740   27.9110 C.3   330  LEU330      0.0284
    129  CG        48.5870  -18.0210   28.6340 C.3   330  LEU330      0.0019
    130  CD1       47.8160  -16.7070   28.6160 C.3   330  LEU330      0.0001
    131  CD2       47.7750  -19.1320   27.9730 C.3   330  LEU330      0.0001
    132  N         53.0250  -16.9430   27.5830 N.am  331  MET331     -0.1979
    133  CA        54.4350  -17.1530   27.9080 C.3   331  MET331      0.1605
    134  C         55.0620  -15.9360   28.5910 C.2   331  MET331      0.2287
    135  O         56.0130  -16.0770   29.3580 O.2   331  MET331     -0.2864
    136  CB        55.2230  -17.5080   26.6480 C.3   331  MET331      0.0413
    137  CG        54.7630  -18.8080   25.9830 C.3   331  MET331      0.0598
    138  SD        54.8030  -20.2220   27.1030 S.3   331  MET331     -0.1393
    139  CE        53.0980  -20.2310   27.6930 C.3   331  MET331      0.0692
    140  N         53.5980  -14.2190   30.7520 N.3   333  ILE333     -0.1231
    141  CA        53.0460  -14.2510   32.1000 C.3   333  ILE333      0.1692
    142  C         53.5970  -15.3670   33.0000 C.2   333  ILE333      0.2592
    143  O         53.8440  -15.1320   34.1820 O.2   333  ILE333     -0.2718
    144  CB        51.4950  -14.3740   32.0230 C.3   333  ILE333      0.0266
    145  CG1       50.9140  -13.1430   31.3130 C.3   333  ILE333      0.0019
    146  CG2       50.9040  -14.5440   33.4190 C.3   333  ILE333      0.0020
    147  CD1       49.5050  -13.3510   30.7460 C.3   333  ILE333      0.0001
    148  N         53.8040  -16.5660   32.4460 N.am  334  ILE334     -0.1966
    149  CA        54.2920  -17.7100   33.2360 C.3   334  ILE334      0.1727
    150  C         55.8120  -17.8640   33.3650 C.2   334  ILE334      0.2616
    151  O         56.5740  -17.1950   32.6710 O.2   334  ILE334     -0.2715
    152  CB        53.7190  -19.0450   32.6830 C.3   334  ILE334      0.0290
    153  CG1       54.5260  -19.5300   31.4670 C.3   334  ILE334      0.0022
    154  CG2       52.2920  -18.8350   32.2590 C.3   334  ILE334      0.0023
    155  CD1       54.1090  -20.9300   30.9640 C.3   334  ILE334      0.0001
    156  N         56.2310  -18.7640   34.2590 N.am  335  GLU335     -0.1963
    157  CA        57.6450  -19.0510   34.5210 C.3   335  GLU335      0.1733
    158  C         58.4230  -17.7730   34.8370 C.2   335  GLU335      0.2617
    159  O         59.5480  -17.5830   34.3760 O.2   335  GLU335     -0.2715
    160  CB        58.2710  -19.7610   33.3120 C.3   335  GLU335      0.0429
    161  CG        57.6640  -21.1330   33.0080 C.3   335  GLU335      0.1163
    162  CD        58.2480  -22.2440   33.8520 C.2   335  GLU335      0.3649
    163  OE1       57.7100  -23.3680   33.8060 O.co2 335  GLU335     -0.2457
    164  OE2       59.2530  -22.0000   34.5530 O.co2 335  GLU335     -0.2457
    165  N         57.8260  -16.9110   35.6540 N.am  336  GLY336     -0.1940
    166  CA        58.4660  -15.6520   35.9820 C.3   336  GLY336      0.2014
    167  C         58.0030  -14.6470   34.9420 C.2   336  GLY336      0.2639
    168  O         58.5350  -14.5990   33.8280 O.2   336  GLY336     -0.2714
    169  N         56.9840  -13.8700   35.2940 N.am  337  SER337     -0.1949
    170  CA        56.4190  -12.8600   34.3940 C.3   337  SER337      0.1924
    171  C         57.4710  -11.8660   33.9240 C.2   337  SER337      0.2314
    172  O         58.5280  -11.7240   34.5430 O.2   337  SER337     -0.2863
    173  CB        55.3160  -12.0790   35.1040 C.3   337  SER337      0.2116
    174  OG        55.8940  -11.1620   36.0250 O.3   337  SER337     -0.2180
    175  N         57.5170   -8.8490   34.2760 N.3   339  GLU339     -0.1231
    176  CA        57.8080   -7.9350   35.3780 C.3   339  GLU339      0.1699
    177  C         58.7810   -8.5470   36.3730 C.2   339  GLU339      0.2592
    178  O         59.7200   -7.8870   36.7920 O.2   339  GLU339     -0.2718
    179  CB        56.5270   -7.5140   36.1070 C.3   339  GLU339      0.0402
    180  CG        55.6310   -6.5880   35.2970 C.3   339  GLU339      0.1161
    181  CD        55.1020   -7.2610   34.0510 C.2   339  GLU339      0.3649
    182  OE1       54.5990   -8.3990   34.1860 O.co2 339  GLU339     -0.2457
    183  OE2       55.1890   -6.6610   32.9470 O.co2 339  GLU339     -0.2457
    184  N         58.5590   -9.8020   36.7500 N.am  340  MET340     -0.1979
    185  CA        59.4520  -10.4640   37.6920 C.3   340  MET340      0.1605
    186  C         60.8270  -10.6790   37.0560 C.2   340  MET340      0.2287
    187  O         61.8490  -10.5960   37.7380 O.2   340  MET340     -0.2864
    188  CB        58.8600  -11.8000   38.1530 C.3   340  MET340      0.0413
    189  CG        57.6240  -11.6500   39.0300 C.3   340  MET340      0.0598
    190  SD        57.8740  -10.4160   40.3450 S.3   340  MET340     -0.1393
    191  CE        58.9610  -11.3220   41.4110 C.3   340  MET340      0.0692
    192  N         62.6450   -7.4790   37.4290 N.3   343  VAL343     -0.1245
    193  CA        63.1540   -7.2280   38.7790 C.3   343  VAL343      0.1561
    194  C         64.3580   -8.1210   39.0640 C.2   343  VAL343      0.2260
    195  O         65.3280   -7.6760   39.6760 O.2   343  VAL343     -0.2867
    196  CB        62.0850   -7.4510   39.8950 C.3   343  VAL343      0.0252
    197  CG1       60.7880   -6.7390   39.5420 C.3   343  VAL343      0.0019
    198  CG2       61.8590   -8.9220   40.1290 C.3   343  VAL343      0.0019
@<TRIPOS>BOND
     1   108   109    1
     2   109   110    1
     3   109   112    1
     4   110   111    2
     5   113   112    1
     6   137   136    1
     7   137   138    1
     8   136   133    1
     9   124   125    1
    10   138   139    1
    11   132   133    1
    12   132   126   am
    13   133   134    1
    14   128   125    1
    15   128   129    1
    16   131   129    1
    17   125   126    1
    18   126   127    2
    19   134   135    2
    20   130   129    1
    21   123   121   ar
    22   123   122   ar
    23   121   119   ar
    24   122   120   ar
    25   147   145    1
    26   140   141    1
    27   155   153    1
    28   107   105    1
    29     1     2    1
    30   145   144    1
    31   119   120   ar
    32   119   118    1
    33   153   152    1
    34   114   115    1
    35   144   141    1
    36   144   146    1
    37    92    93   ar
    38    92    90   ar
    39    93    91   ar
    40   141   142    1
    41   154   152    1
    42     6     5    1
    43   148   142   am
    44   148   149    1
    45   106   105    1
    46   118   115    1
    47   105   102    1
    48     5     2    1
    49     2     3    1
    50   151   150    2
    51   152   149    1
    52   115   116    1
    53     3     4    2
    54   183   181   ar
    55   142   143    2
    56   161   160    1
    57   161   162    1
    58   103   102    1
    59   103   104    2
    60   149   150    1
    61    90    87   ar
    62    91    89   ar
    63   102   101    1
    64   160   157    1
    65   117   116    2
    66   150   156   am
    67     7     8    1
    68   163   162   ar
    69   168   167    2
    70   162   164   ar
    71   171   170    1
    72   171   172    2
    73   181   182   ar
    74   181   180    1
    75   156   157    1
    76   175   176    1
    77   159   158    2
    78   170   173    1
    79   170   169    1
    80    89    87   ar
    81    89    88   ar
    82    87    85   ar
    83   157   158    1
    84   101    96   am
    85     8    11    1
    86     8     9    1
    87   158   165   am
    88    11    12    1
    89   167   169   am
    90   167   166    1
    91    97    96    2
    92   173   174    1
    93   180   179    1
    94   176   179    1
    95   176   177    1
    96    96    95    1
    97    83    82    2
    98   165   166    1
    99    88    86   ar
   100    85    84    1
   101    85    86   ar
   102     9    10    2
   103    13    14    1
   104    13    12    1
   105    84    81    1
   106   177   184   am
   107   177   178    2
   108    82    81    1
   109    82    94   am
   110    81    80    1
   111   184   185    1
   112    95    94    1
   113    95    98    1
   114   186   185    1
   115   186   187    2
   116    21    19    1
   117   192   193    1
   118    15    16    1
   119   185   188    1
   120    98   100    1
   121    98    99    1
   122    80    75   am
   123   188   189    1
   124    19    16    1
   125    19    20    1
   126    18    17    2
   127    16    17    1
   128   193   194    1
   129   193   196    1
   130    36    35   ar
   131    36    34   ar
   132   189   190    1
   133    17    22   am
   134   194   195    2
   135    76    75    2
   136    75    74    1
   137    35    33   ar
   138   197   196    1
   139    72    71    1
   140    34    32   ar
   141   196   198    1
   142    22    23    1
   143   190   191    1
   144    62    60    1
   145    74    77    1
   146    74    73    1
   147    33    31   ar
   148    61    60    1
   149    77    79    1
   150    77    78    1
   151    23    24    1
   152    41    42    1
   153    41    38    1
   154    71    68    1
   155    60    59    2
   156    32    31   ar
   157    68    67    1
   158    68    69    1
   159    31    30    1
   160    67    65   am
   161    66    65    2
   162    65    64    1
   163    64    63    1
   164    26    24   am
   165    26    27    1
   166    24    25    2
   167    59    58    1
   168    37    38    1
   169    37    28   am
   170    38    39    1
   171    69    70    2
   172    58    57    1
   173    30    27    1
   174    40    39    2
   175    39    43   am
   176    27    28    1
   177    28    29    2
   178    46    45    2
   179    43    44    1
   180    45    44    1
   181    45    52   am
   182    55    54    2
   183    57    56    1
   184    53    52    1
   185    53    54    1
   186    53    56    1
   187    44    47    1
   188    47    48    1
   189    48    49    1
   190    49    50   ar
   191    49    51   ar
