@<TRIPOS>MOLECULE
tmp/1r30B00.pdb
 225 213 0 0 0
SMALL
GASTEIGER

@<TRIPOS>ATOM
      1  N        124.4210   77.9190   22.2640 N.3    51  CYS51      -0.1235
      2  CA       124.8450   77.7570   23.6450 C.3    51  CYS51       0.1677
      3  C        125.8290   76.6210   23.8620 C.2    51  CYS51       0.2270
      4  O        125.6390   75.5040   23.3790 O.2    51  CYS51      -0.2867
      5  CB       123.6710   77.5670   24.6020 C.3    51  CYS51       0.0956
      6  SG       124.2880   77.6120   26.3190 S.3    51  CYS51      -0.0801
      7  N        126.9010   74.9070   26.8330 N.3    53  GLU53      -0.1245
      8  CA       126.4870   73.7710   27.6580 C.3    53  GLU53       0.1567
      9  C        125.7170   72.6700   26.9050 C.2    53  GLU53       0.2260
     10  O        125.3580   72.8330   25.7430 O.2    53  GLU53      -0.2867
     11  CB       125.6940   74.2760   28.8690 C.3    53  GLU53       0.0388
     12  CG       126.3410   75.4620   29.6390 C.3    53  GLU53       0.1160
     13  CD       127.8050   75.2520   30.0650 C.2    53  GLU53       0.3649
     14  OE1      128.2360   75.8710   31.0650 O.co2  53  GLU53      -0.2457
     15  OE2      128.5390   74.4960   29.4010 O.co2  53  GLU53      -0.2457
     16  N        122.6450   70.7270   28.0610 N.3    55  CYS55      -0.1235
     17  CA       121.4810   70.2170   28.7790 C.3    55  CYS55       0.1677
     18  C        120.5730   69.3580   27.8990 C.2    55  CYS55       0.2270
     19  O        120.0130   69.8240   26.9030 O.2    55  CYS55      -0.2867
     20  CB       120.7030   71.3730   29.3820 C.3    55  CYS55       0.0956
     21  SG       121.7350   72.4230   30.4450 S.3    55  CYS55      -0.0801
     22  N        117.7610   68.6400   27.9230 N.3    57  TYR57      -0.1227
     23  CA       116.3910   69.1160   27.7530 C.3    57  TYR57       0.1736
     24  C        116.1960   70.4110   26.9850 C.2    57  TYR57       0.2596
     25  O        115.1760   70.5960   26.3250 O.2    57  TYR57      -0.2718
     26  CB       115.7430   69.2740   29.1230 C.3    57  TYR57       0.0548
     27  CG       116.5070   70.1780   30.0650 C.ar   57  TYR57      -0.0200
     28  CD1      117.1180   69.6680   31.2080 C.ar   57  TYR57      -0.0009
     29  CD2      116.6040   71.5430   29.8250 C.ar   57  TYR57      -0.0009
     30  CE1      117.8020   70.4950   32.0910 C.ar   57  TYR57       0.0417
     31  CE2      117.2870   72.3820   30.6950 C.ar   57  TYR57       0.0417
     32  CZ       117.8840   71.8560   31.8290 C.ar   57  TYR57       0.1957
     33  OH       118.5540   72.6960   32.6980 O.3    57  TYR57      -0.2866
     34  N        117.1720   71.3040   27.0900 N.am   58  CYS58      -0.1957
     35  CA       117.1180   72.6100   26.4460 C.3    58  CYS58       0.1828
     36  C        117.1920   72.5930   24.9350 C.2    58  CYS58       0.2467
     37  O        117.9140   71.7960   24.3430 O.2    58  CYS58      -0.2730
     38  CB       118.2390   73.4690   26.9850 C.3    58  CYS58       0.0996
     39  SG       118.4210   75.1330   26.2890 S.3    58  CYS58      -0.0797
     40  N        116.4440   73.4920   24.2900 N.am   59  PRO59      -0.2715
     41  CA       116.4420   73.5600   22.8350 C.3    59  PRO59       0.1536
     42  C        117.4630   74.5540   22.2910 C.2    59  PRO59       0.2598
     43  O        117.6330   74.6620   21.0770 O.2    59  PRO59      -0.2715
     44  CB       115.0130   73.9750   22.5310 C.3    59  PRO59       0.0310
     45  CG       114.7520   74.9640   23.6170 C.3    59  PRO59       0.0237
     46  CD       115.3400   74.2940   24.8500 C.3    59  PRO59       0.0939
     47  N        118.1400   75.2850   23.1730 N.am   60  GLN60      -0.1978
     48  CA       119.1260   76.2550   22.7090 C.3    60  GLN60       0.1601
     49  C        120.5340   75.6640   22.6150 C.2    60  GLN60       0.2287
     50  O        121.3910   76.1870   21.8940 O.2    60  GLN60      -0.2864
     51  CB       119.1120   77.4920   23.6110 C.3    60  GLN60       0.0394
     52  CG       117.8370   78.3140   23.4660 C.3    60  GLN60       0.0908
     53  CD       117.6990   79.4360   24.4940 C.2    60  GLN60       0.2608
     54  OE1      118.3610   80.4790   24.4030 O.2    60  GLN60      -0.2717
     55  NE2      116.8280   79.2230   25.4820 N.am   60  GLN60      -0.0878
     56  N        119.7920   85.1500   28.9450 N.3    98  ALA98      -0.1231
     57  CA       120.8230   84.9190   27.9440 C.3    98  ALA98       0.1694
     58  C        121.1120   83.4400   27.8230 C.2    98  ALA98       0.2592
     59  O        120.8930   82.6770   28.7580 O.2    98  ALA98      -0.2718
     60  CB       122.0710   85.6300   28.3380 C.3    98  ALA98       0.0304
     61  N        121.6200   83.0290   26.6730 N.am   99  ALA99      -0.1966
     62  CA       121.9290   81.6230   26.4790 C.3    99  ALA99       0.1728
     63  C        123.4180   81.4250   26.6550 C.2    99  ALA99       0.2616
     64  O        124.0710   80.8700   25.7840 O.2    99  ALA99      -0.2715
     65  CB       121.5010   81.1880   25.0890 C.3    99  ALA99       0.0334
     66  N        123.9570   81.8800   27.7790 N.am  100  TRP100     -0.1960
     67  CA       125.3900   81.7620   28.0320 C.3   100  TRP100      0.1771
     68  C        125.7430   80.7920   29.1350 C.2   100  TRP100      0.2619
     69  O        124.8660   80.2250   29.7840 O.2   100  TRP100     -0.2715
     70  CB       125.9750   83.1000   28.4410 C.3   100  TRP100      0.0590
     71  CG       125.6840   84.2090   27.5310 C.ar  100  TRP100      0.0006
     72  CD1      125.6670   84.1690   26.1680 C.ar  100  TRP100      0.0946
     73  CD2      125.5000   85.5800   27.9000 C.ar  100  TRP100      0.0152
     74  NE1      125.4970   85.4380   25.6630 N.ar  100  TRP100     -0.2442
     75  CE2      125.3920   86.3240   26.7040 C.ar  100  TRP100      0.0810
     76  CE3      125.4250   86.2540   29.1260 C.ar  100  TRP100      0.0012
     77  CZ2      125.2090   87.7110   26.6940 C.ar  100  TRP100      0.0191
     78  CZ3      125.2430   87.6370   29.1170 C.ar  100  TRP100      0.0001
     79  CH2      125.1390   88.3470   27.9050 C.ar  100  TRP100      0.0015
     80  N        127.0450   80.6120   29.3400 N.am  101  LYS101     -0.1977
     81  CA       127.5210   79.7540   30.4080 C.3   101  LYS101      0.1596
     82  C        127.6980   80.7640   31.5090 C.2   101  LYS101      0.2287
     83  O        127.2190   80.5820   32.6240 O.2   101  LYS101     -0.2864
     84  CB       128.8400   79.1480   30.0510 C.3   101  LYS101      0.0298
     85  CG       129.5740   78.4230   31.1970 C.3   101  LYS101      0.0038
     86  CD       130.8500   77.9280   30.5290 C.3   101  LYS101      0.0206
     87  CE       131.9810   77.7510   31.5260 C.3   101  LYS101      0.1093
     88  NZ       132.9360   76.7880   30.8920 N.3   101  LYS101     -0.1314
     89  N        118.7470   86.0870   33.9380 N.3   128  THR128     -0.1218
     90  CA       119.4260   84.8240   34.1160 C.3   128  THR128      0.1862
     91  C        120.4810   84.7810   33.0250 C.2   128  THR128      0.2287
     92  O        120.1840   84.6400   31.8380 O.2   128  THR128     -0.2866
     93  CB       118.4450   83.6460   33.9920 C.3   128  THR128      0.1770
     94  OG1      119.1590   82.4200   34.1720 O.3   128  THR128     -0.2211
     95  CG2      117.7630   83.6460   32.6370 C.3   128  THR128      0.0375
     96  N        123.4130   82.8780   33.6130 N.3   130  GLY130     -0.1225
     97  CA       124.2800   81.7480   33.8720 C.3   130  GLY130      0.1811
     98  C        125.0750   81.9450   35.1470 C.2   130  GLY130      0.2280
     99  O        124.5550   82.4850   36.1270 O.2   130  GLY130     -0.2866
    100  N        118.1600   84.3230   38.3130 N.3   149  ASN149     -0.1225
    101  CA       117.7090   82.9590   38.1090 C.3   149  ASN149      0.1785
    102  C        118.8940   82.0000   37.9850 C.2   149  ASN149      0.2597
    103  O        119.8900   82.3170   37.3300 O.2   149  ASN149     -0.2718
    104  CB       116.8720   82.8820   36.8430 C.3   149  ASN149      0.1169
    105  CG       116.4060   81.4730   36.5460 C.2   149  ASN149      0.2627
    106  OD1      116.3060   81.0680   35.3870 O.2   149  ASN149     -0.2716
    107  ND2      116.1080   80.7180   37.5950 N.am  149  ASN149     -0.0877
    108  N        118.7780   80.8250   38.6060 N.am  150  HIS150     -0.1961
    109  CA       119.8320   79.8070   38.5700 C.3   150  HIS150      0.1787
    110  C        119.2340   78.5280   39.1270 C.2   150  HIS150      0.2620
    111  O        119.0740   78.3910   40.3360 O.2   150  HIS150     -0.2715
    112  CB       121.0030   80.2400   39.4400 C.3   150  HIS150      0.0785
    113  CG       122.3360   79.8960   38.8640 C.ar  150  HIS150      0.0821
    114  ND1      122.8690   80.5610   37.7820 N.ar  150  HIS150     -0.2267
    115  CD2      123.2330   78.9410   39.2010 C.ar  150  HIS150      0.1154
    116  CE1      124.0380   80.0260   37.4770 C.ar  150  HIS150      0.1986
    117  NE2      124.2820   79.0410   38.3220 N.ar  150  HIS150     -0.2212
    118  N        118.9100   77.5860   38.2530 N.am  151  ASN151     -0.1972
    119  CA       118.2630   76.3510   38.6990 C.3   151  ASN151      0.1688
    120  C        119.1830   75.1720   39.0220 C.2   151  ASN151      0.2292
    121  O        120.3270   75.0950   38.5630 O.2   151  ASN151     -0.2864
    122  CB       117.2320   75.9000   37.6500 C.3   151  ASN151      0.1181
    123  CG       116.2280   76.9830   37.3020 C.2   151  ASN151      0.2629
    124  OD1      115.4910   77.4590   38.1620 O.2   151  ASN151     -0.2716
    125  ND2      116.1920   77.3680   36.0340 N.am  151  ASN151     -0.0877
    126  N        117.7810   72.1100   38.6530 N.3   153  ASP153     -0.1239
    127  CA       117.1690   71.1050   37.7820 C.3   153  ASP153      0.1674
    128  C        116.7660   69.7660   38.4130 C.2   153  ASP153      0.2266
    129  O        115.6740   69.2690   38.1450 O.2   153  ASP153     -0.2867
    130  CB       118.0880   70.8800   36.5840 C.3   153  ASP153      0.1410
    131  CG       118.3420   72.1660   35.8040 C.2   153  ASP153      0.3668
    132  OD1      117.4510   72.5800   35.0320 O.co2 153  ASP153     -0.2456
    133  OD2      119.4250   72.7720   35.9780 O.co2 153  ASP153     -0.2456
    134  N        128.7510   71.3690   33.7010 N.3   166  ARG166     -0.1245
    135  CA       128.7870   72.1800   34.9100 C.3   166  ARG166      0.1563
    136  C        128.7720   71.3090   36.1580 C.2   166  ARG166      0.2260
    137  O        128.2720   70.1790   36.1380 O.2   166  ARG166     -0.2867
    138  CB       127.5880   73.1280   34.9490 C.3   166  ARG166      0.0307
    139  CG       127.3980   73.9840   33.7070 C.3   166  ARG166      0.0489
    140  CD       126.3930   75.0970   33.9750 C.3   166  ARG166      0.2205
    141  NE       125.1090   74.5910   34.4540 N.pl3 166  ARG166     -0.0865
    142  CZ       124.2340   73.9440   33.6950 C.cat 166  ARG166      0.5346
    143  NH1      124.5040   73.7240   32.4200 N.pl3 166  ARG166      0.1354
    144  NH2      123.0870   73.5310   34.2080 N.pl3 166  ARG166      0.1354
    145  N        126.8470   75.6320   40.6400 N.3   171  ARG171     -0.1245
    146  CA       125.6690   76.4820   40.6570 C.3   171  ARG171      0.1563
    147  C        125.4430   77.0180   42.0610 C.2   171  ARG171      0.2260
    148  O        125.3490   78.2260   42.2530 O.2   171  ARG171     -0.2867
    149  CB       124.4510   75.6900   40.1980 C.3   171  ARG171      0.0307
    150  CG       124.7560   74.7530   39.0540 C.3   171  ARG171      0.0489
    151  CD       123.7050   74.8420   37.9840 C.3   171  ARG171      0.2205
    152  NE       123.6930   76.1600   37.3660 N.pl3 171  ARG171     -0.0865
    153  CZ       122.8060   76.5430   36.4560 C.cat 171  ARG171      0.5346
    154  NH1      121.8560   75.7060   36.0560 N.pl3 171  ARG171      0.1354
    155  NH2      122.8660   77.7630   35.9470 N.pl3 171  ARG171      0.1354
    156  N        113.6790   73.7760   39.4900 N.3   189  GLY189     -0.1210
    157  CA       114.0350   72.6510   38.6530 C.3   189  GLY189      0.1956
    158  C        113.0230   72.2790   37.5950 C.2   189  GLY189      0.2611
    159  O        112.0800   73.0130   37.3090 O.2   189  GLY189     -0.2717
    160  N        113.2400   71.1090   37.0120 N.am  190  ILE190     -0.1979
    161  CA       112.3860   70.5880   35.9670 C.3   190  ILE190      0.1595
    162  C        111.8920   69.2420   36.4080 C.2   190  ILE190      0.2287
    163  O        112.5530   68.5640   37.1870 O.2   190  ILE190     -0.2864
    164  CB       113.1630   70.3870   34.6870 C.3   190  ILE190      0.0276
    165  CG1      113.7980   71.7080   34.2640 C.3   190  ILE190      0.0022
    166  CG2      112.2380   69.8540   33.6180 C.3   190  ILE190      0.0022
    167  CD1      114.6680   71.6020   33.0400 C.3   190  ILE190      0.0001
    168  N        109.3960   73.8150   36.4930 N.3   220  ASN220     -0.1225
    169  CA       109.0510   73.6050   35.1010 C.3   220  ASN220      0.1785
    170  C        108.7540   72.1500   34.8470 C.2   220  ASN220      0.2597
    171  O        109.2830   71.2720   35.5380 O.2   220  ASN220     -0.2718
    172  CB       110.2130   74.0300   34.2360 C.3   220  ASN220      0.1169
    173  CG       110.7270   75.3740   34.6240 C.2   220  ASN220      0.2627
    174  OD1      110.3040   76.3920   34.0830 O.2   220  ASN220     -0.2716
    175  ND2      111.6270   75.4000   35.6020 N.am  220  ASN220     -0.0877
    176  N        107.8840   71.9000   33.8730 N.am  221  MET221     -0.1965
    177  CA       107.5620   70.5420   33.4860 C.3   221  MET221      0.1736
    178  C        108.3620   70.4170   32.2000 C.2   221  MET221      0.2616
    179  O        108.4240   71.3650   31.4220 O.2   221  MET221     -0.2715
    180  CB       106.0800   70.3870   33.2100 C.3   221  MET221      0.0427
    181  CG       105.6430   68.9580   33.2970 C.3   221  MET221      0.0599
    182  SD       104.0690   68.7340   32.5230 S.3   221  MET221     -0.1393
    183  CE       104.5530   67.7990   31.0240 C.3   221  MET221      0.0692
    184  N        108.9890   69.2700   31.9750 N.am  222  LEU222     -0.1963
    185  CA       109.8130   69.1020   30.7870 C.3   222  LEU222      0.1728
    186  C        109.1290   69.3890   29.4580 C.2   222  LEU222      0.2616
    187  O        108.0630   68.8530   29.1600 O.2   222  LEU222     -0.2715
    188  CB       110.4140   67.6970   30.7590 C.3   222  LEU222      0.0311
    189  CG       111.3700   67.4020   29.5960 C.3   222  LEU222      0.0022
    190  CD1      112.2020   68.6340   29.2500 C.3   222  LEU222      0.0001
    191  CD2      112.2700   66.2320   29.9760 C.3   222  LEU222      0.0001
    192  N        109.7610   70.2440   28.6620 N.am  223  VAL223     -0.1977
    193  CA       109.2450   70.6050   27.3480 C.3   223  VAL223      0.1596
    194  C        110.0100   69.7860   26.3240 C.2   223  VAL223      0.2287
    195  O        111.0910   70.1740   25.8950 O.2   223  VAL223     -0.2864
    196  CB       109.4860   72.0920   27.0330 C.3   223  VAL223      0.0276
    197  CG1      108.7350   72.4890   25.7770 C.3   223  VAL223      0.0022
    198  CG2      109.0660   72.9440   28.1990 C.3   223  VAL223      0.0022
    199  N        111.5090   68.5900   23.1140 N.3   225  VAL225     -0.1245
    200  CA       111.7580   69.2900   21.8570 C.3   225  VAL225      0.1561
    201  C        112.5210   68.3960   20.8960 C.2   225  VAL225      0.2260
    202  O        113.6120   67.9290   21.2180 O.2   225  VAL225     -0.2867
    203  CB       112.5970   70.5610   22.0690 C.3   225  VAL225      0.0252
    204  CG1      112.6770   71.3370   20.7750 C.3   225  VAL225      0.0019
    205  CG2      112.0010   71.4120   23.1660 C.3   225  VAL225      0.0019
    206  N        107.0070   76.9540   32.7510 N.3   261  ALA261     -0.1245
    207  CA       107.4010   76.0680   31.6690 C.3   261  ALA261      0.1562
    208  C        106.5880   74.7920   31.5390 C.2   261  ALA261      0.2260
    209  O        106.8000   73.8190   32.2770 O.2   261  ALA261     -0.2867
    210  CB       108.8670   75.7140   31.8160 C.3   261  ALA261      0.0290
    211  N        110.8970   81.6430   26.6720 N.3   289  LEU289     -0.1245
    212  CA       112.2290   81.7510   26.1120 C.3   289  LEU289      0.1561
    213  C        112.2700   81.3110   24.6560 C.2   289  LEU289      0.2260
    214  O        112.8320   82.0050   23.8130 O.2   289  LEU289     -0.2867
    215  CB       113.2280   80.9430   26.9370 C.3   289  LEU289      0.0270
    216  CG       114.2780   81.8540   27.5740 C.3   289  LEU289      0.0019
    217  CD1      113.9310   82.1290   29.0200 C.3   289  LEU289      0.0001
    218  CD2      115.6320   81.2020   27.4630 C.3   289  LEU289      0.0001
    219  N        109.8070   78.2780   23.6720 N.3   291  THR291     -0.1218
    220  CA       108.6930   77.3720   23.4310 C.3   291  THR291      0.1862
    221  C        107.3810   78.1480   23.5420 C.2   291  THR291      0.2287
    222  O        107.3730   79.3390   23.8650 O.2   291  THR291     -0.2866
    223  CB       108.6880   76.1730   24.4250 C.3   291  THR291      0.1770
    224  OG1      108.1790   76.5910   25.6950 O.3   291  THR291     -0.2211
    225  CG2      110.0960   75.6260   24.6070 C.3   291  THR291      0.0375
@<TRIPOS>BOND
     1   204   203    1
     2   201   202    2
     3   201   200    1
     4    43    42    2
     5   200   203    1
     6   200   199    1
     7    50    49    2
     8   203   205    1
     9     1     2    1
    10    42    41    1
    11    42    47   am
    12    44    41    1
    13    44    45    1
    14    49    48    1
    15    48    47    1
    16    48    51    1
    17    41    40    1
    18     4     3    2
    19   220   221    1
    20   220   219    1
    21   220   223    1
    22    52    51    1
    23    52    53    1
    24   221   222    2
    25    45    46    1
    26     2     3    1
    27     2     5    1
    28   214   213    2
    29    40    46    1
    30    40    36   am
    31    37    36    2
    32    54    53    2
    33   223   225    1
    34   223   224    1
    35    53    55   am
    36     5     6    1
    37   213   212    1
    38    36    35    1
    39    65    62    1
    40    74    72   ar
    41    74    75   ar
    42    10     9    2
    43   197   196    1
    44    64    63    2
    45   195   194    2
    46   212   211    1
    47   212   215    1
    48    72    71   ar
    49    39    38    1
    50   194   193    1
    51    25    24    2
    52    35    38    1
    53    35    34    1
    54    62    63    1
    55    62    61    1
    56    63    66   am
    57    61    58   am
    58    77    75   ar
    59    77    79   ar
    60    75    73   ar
    61     7     8    1
    62    19    18    2
    63     9     8    1
    64   215   216    1
    65    24    34   am
    66    24    23    1
    67   196   193    1
    68   196   198    1
    69   193   192    1
    70   218   216    1
    71    71    73   ar
    72    71    70    1
    73   216   217    1
    74     8    11    1
    75    23    22    1
    76    23    26    1
    77    66    67    1
    78    58    57    1
    79    58    59    2
    80    18    17    1
    81    73    76   ar
    82    79    78   ar
    83    57    60    1
    84    57    56    1
    85    67    70    1
    86    67    68    1
    87    16    17    1
    88   192   186   am
    89    17    20    1
    90    11    12    1
    91    78    76   ar
    92    26    27    1
    93    68    80   am
    94    68    69    2
    95   187   186    2
    96   190   189    1
    97    80    81    1
    98    20    21    1
    99    15    13   ar
   100   186   185    1
   101   189   191    1
   102   189   188    1
   103    12    13    1
   104    29    27   ar
   105    29    31   ar
   106    84    81    1
   107    84    85    1
   108    27    28   ar
   109    13    14   ar
   110    81    82    1
   111    86    85    1
   112    86    87    1
   113    31    32   ar
   114   188   185    1
   115   185   184    1
   116    88    87    1
   117   183   182    1
   118    28    30   ar
   119   179   178    2
   120    82    83    2
   121   208   207    1
   122   208   209    2
   123   207   210    1
   124   207   206    1
   125    32    30   ar
   126    32    33    1
   127    92    91    2
   128   184   178   am
   129   178   177    1
   130   143   142    1
   131   182   181    1
   132    95    93    1
   133    91    90    1
   134   167   165    1
   135   180   181    1
   136   180   177    1
   137   177   176    1
   138    96    97    1
   139   166   164    1
   140   142   144    1
   141   142   141    2
   142   134   135    1
   143   139   140    1
   144   139   138    1
   145    97    98    1
   146   176   170   am
   147    89    90    1
   148   140   141    1
   149    93    90    1
   150    93    94    1
   151   174   173    2
   152   172   173    1
   153   172   169    1
   154   165   164    1
   155   173   175   am
   156   164   161    1
   157   170   169    1
   158   170   171    2
   159   135   138    1
   160   135   136    1
   161   132   131   ar
   162   169   168    1
   163    98    99    2
   164   106   105    2
   165   131   133   ar
   166   131   130    1
   167   155   153    1
   168   161   162    1
   169   161   160    1
   170   125   123   am
   171   154   153    1
   172   137   136    2
   173   162   163    2
   174   153   152    2
   175   105   104    1
   176   105   107   am
   177   130   127    1
   178   104   101    1
   179   160   158   am
   180   123   122    1
   181   123   124    2
   182   159   158    2
   183   103   102    2
   184   152   151    1
   185   116   114   ar
   186   116   117   ar
   187   158   157    1
   188   122   119    1
   189   127   128    1
   190   127   126    1
   191   114   113   ar
   192   151   150    1
   193   102   101    1
   194   102   108   am
   195   101   100    1
   196   129   128    2
   197   118   119    1
   198   118   110   am
   199   117   115   ar
   200   121   120    2
   201   109   108    1
   202   109   110    1
   203   109   112    1
   204   157   156    1
   205   119   120    1
   206   113   115   ar
   207   113   112    1
   208   150   149    1
   209   110   111    2
   210   149   146    1
   211   145   146    1
   212   146   147    1
   213   147   148    2
