@<TRIPOS>MOLECULE
tmp/1r30B01.pdb
 144 133 0 0 0
SMALL
GASTEIGER

@<TRIPOS>ATOM
      1  N        108.9500   87.1940   30.5890 N.3    43  LEU43      -0.1245
      2  CA       110.3680   87.2110   30.2420 C.3    43  LEU43       0.1561
      3  C        110.5950   87.1370   28.7490 C.2    43  LEU43       0.2260
      4  O        109.6820   86.8240   27.9880 O.2    43  LEU43      -0.2867
      5  CB       111.0880   86.0180   30.8900 C.3    43  LEU43       0.0270
      6  CG       111.0070   84.6680   30.1650 C.3    43  LEU43       0.0019
      7  CD1      111.5370   83.5510   31.0420 C.3    43  LEU43       0.0001
      8  CD2      109.5640   84.3930   29.8040 C.3    43  LEU43       0.0001
      9  N        116.4440   73.4920   24.2900 N.3    59  PRO59      -0.2102
     10  CA       116.4420   73.5600   22.8350 C.3    59  PRO59       0.1504
     11  C        117.4630   74.5540   22.2910 C.2    59  PRO59       0.2575
     12  O        117.6330   74.6620   21.0770 O.2    59  PRO59      -0.2718
     13  CB       115.0130   73.9750   22.5310 C.3    59  PRO59       0.0282
     14  CG       114.7520   74.9640   23.6170 C.3    59  PRO59       0.0208
     15  CD       115.3400   74.2940   24.8500 C.3    59  PRO59       0.0893
     16  N        118.1400   75.2850   23.1730 N.am   60  GLN60      -0.1980
     17  CA       119.1260   76.2550   22.7090 C.3    60  GLN60       0.1601
     18  C        120.5340   75.6640   22.6150 C.2    60  GLN60       0.2287
     19  O        121.3910   76.1870   21.8940 O.2    60  GLN60      -0.2864
     20  CB       119.1120   77.4920   23.6110 C.3    60  GLN60       0.0394
     21  CG       117.8370   78.3140   23.4660 C.3    60  GLN60       0.0908
     22  CD       117.6990   79.4360   24.4940 C.2    60  GLN60       0.2608
     23  OE1      118.3610   80.4790   24.4030 O.2    60  GLN60      -0.2717
     24  NE2      116.8280   79.2230   25.4820 N.am   60  GLN60      -0.0878
     25  N        111.9180   89.4640   33.0160 N.3    95  CYS95      -0.1235
     26  CA       113.0170   88.5100   33.1260 C.3    95  CYS95       0.1677
     27  C        113.8550   88.3000   31.8740 C.2    95  CYS95       0.2270
     28  O        113.4630   87.5350   30.9970 O.2    95  CYS95      -0.2867
     29  CB       112.4700   87.1570   33.5570 C.3    95  CYS95       0.0956
     30  SG       111.5650   87.1740   35.1260 S.3    95  CYS95      -0.0801
     31  N        118.7470   86.0870   33.9380 N.3   128  THR128     -0.1218
     32  CA       119.4260   84.8240   34.1160 C.3   128  THR128      0.1862
     33  C        120.4810   84.7810   33.0250 C.2   128  THR128      0.2287
     34  O        120.1840   84.6400   31.8380 O.2   128  THR128     -0.2866
     35  CB       118.4450   83.6460   33.9920 C.3   128  THR128      0.1770
     36  OG1      119.1590   82.4200   34.1720 O.3   128  THR128     -0.2211
     37  CG2      117.7630   83.6460   32.6370 C.3   128  THR128      0.0375
     38  N        118.1600   84.3230   38.3130 N.3   149  ASN149     -0.1240
     39  CA       117.7090   82.9590   38.1090 C.3   149  ASN149      0.1653
     40  C        118.8940   82.0000   37.9850 C.2   149  ASN149      0.2266
     41  O        119.8900   82.3170   37.3300 O.2   149  ASN149     -0.2867
     42  CB       116.8720   82.8820   36.8430 C.3   149  ASN149      0.1155
     43  CG       116.4060   81.4730   36.5460 C.2   149  ASN149      0.2627
     44  OD1      116.3060   81.0680   35.3870 O.2   149  ASN149     -0.2716
     45  ND2      116.1080   80.7180   37.5950 N.am  149  ASN149     -0.0877
     46  N        118.9100   77.5860   38.2530 N.3   151  ASN151     -0.1240
     47  CA       118.2630   76.3510   38.6990 C.3   151  ASN151      0.1653
     48  C        119.1830   75.1720   39.0220 C.2   151  ASN151      0.2266
     49  O        120.3270   75.0950   38.5630 O.2   151  ASN151     -0.2867
     50  CB       117.2320   75.9000   37.6500 C.3   151  ASN151      0.1155
     51  CG       116.2280   76.9830   37.3020 C.2   151  ASN151      0.2627
     52  OD1      115.4910   77.4590   38.1620 O.2   151  ASN151     -0.2716
     53  ND2      116.1920   77.3680   36.0340 N.am  151  ASN151     -0.0877
     54  N        116.1630   83.2310   42.5650 N.3   186  CYS186     -0.1235
     55  CA       115.0770   82.4540   41.9770 C.3   186  CYS186      0.1677
     56  C        115.7280   81.1690   41.5180 C.2   186  CYS186      0.2270
     57  O        116.4610   81.1630   40.5320 O.2   186  CYS186     -0.2867
     58  CB       114.4480   83.1670   40.7710 C.3   186  CYS186      0.0956
     59  SG       113.2060   82.1740   39.8760 S.3   186  CYS186     -0.0801
     60  N        110.6970   78.2080   40.8900 N.3   218  PRO218     -0.2116
     61  CA       110.0120   77.7040   39.7010 C.3   218  PRO218      0.1372
     62  C        110.0350   76.2000   39.5990 C.2   218  PRO218      0.2244
     63  O        110.9480   75.5470   40.0770 O.2   218  PRO218     -0.2868
     64  CB       110.7690   78.3680   38.5570 C.3   218  PRO218      0.0268
     65  CG       112.1230   78.5400   39.1080 C.3   218  PRO218      0.0207
     66  CD       111.8530   79.0300   40.5090 C.3   218  PRO218      0.0892
     67  N        109.3960   73.8150   36.4930 N.3   220  ASN220     -0.1240
     68  CA       109.0510   73.6050   35.1010 C.3   220  ASN220      0.1653
     69  C        108.7540   72.1500   34.8470 C.2   220  ASN220      0.2266
     70  O        109.2830   71.2720   35.5380 O.2   220  ASN220     -0.2867
     71  CB       110.2130   74.0300   34.2360 C.3   220  ASN220      0.1155
     72  CG       110.7270   75.3740   34.6240 C.2   220  ASN220      0.2627
     73  OD1      110.3040   76.3920   34.0830 O.2   220  ASN220     -0.2716
     74  ND2      111.6270   75.4000   35.6020 N.am  220  ASN220     -0.0877
     75  N        109.7610   70.2440   28.6620 N.3   223  VAL223     -0.1245
     76  CA       109.2450   70.6050   27.3480 C.3   223  VAL223      0.1561
     77  C        110.0100   69.7860   26.3240 C.2   223  VAL223      0.2260
     78  O        111.0910   70.1740   25.8950 O.2   223  VAL223     -0.2867
     79  CB       109.4860   72.0920   27.0330 C.3   223  VAL223      0.0252
     80  CG1      108.7350   72.4890   25.7770 C.3   223  VAL223      0.0019
     81  CG2      109.0660   72.9440   28.1990 C.3   223  VAL223      0.0019
     82  N        106.4720   79.0940   41.5570 N.3   258  ARG258     -0.1245
     83  CA       106.0150   79.4900   40.2300 C.3   258  ARG258      0.1563
     84  C        105.7500   78.3840   39.2330 C.2   258  ARG258      0.2260
     85  O        106.6800   77.7880   38.6890 O.2   258  ARG258     -0.2867
     86  CB       107.0010   80.4410   39.5770 C.3   258  ARG258      0.0307
     87  CG       106.6910   80.7190   38.1220 C.3   258  ARG258      0.0489
     88  CD       107.7800   81.5720   37.5530 C.3   258  ARG258      0.2205
     89  NE       108.0840   82.6810   38.4510 N.pl3 258  ARG258     -0.0865
     90  CZ       109.0920   83.5370   38.2950 C.cat 258  ARG258      0.5346
     91  NH1      109.9250   83.4330   37.2600 N.pl3 258  ARG258      0.1354
     92  NH2      109.2670   84.5040   39.1880 N.pl3 258  ARG258      0.1354
     93  N        105.5020   77.1000   36.0850 N.3   260  SER260     -0.1202
     94  CA       106.0470   77.6240   34.8420 C.3   260  SER260      0.2020
     95  C        106.3260   76.5490   33.8150 C.2   260  SER260      0.2618
     96  O        105.9490   75.4000   33.9830 O.2   260  SER260     -0.2717
     97  CB       107.3550   78.3560   35.1300 C.3   260  SER260      0.2103
     98  OG       108.3490   77.4390   35.5580 O.3   260  SER260     -0.2182
     99  N        107.0070   76.9540   32.7510 N.am  261  ALA261     -0.1979
    100  CA       107.4010   76.0680   31.6690 C.3   261  ALA261      0.1597
    101  C        106.5880   74.7920   31.5390 C.2   261  ALA261      0.2287
    102  O        106.8000   73.8190   32.2770 O.2   261  ALA261     -0.2864
    103  CB       108.8670   75.7140   31.8160 C.3   261  ALA261      0.0319
    104  N        104.3930   82.6130   34.2760 N.3   283  PHE283     -0.1241
    105  CA       104.9640   83.4020   33.2180 C.3   283  PHE283      0.1605
    106  C        103.7280   83.6980   32.3900 C.2   283  PHE283      0.2264
    107  O        102.9490   82.7880   32.0580 O.2   283  PHE283     -0.2867
    108  CB       105.9780   82.6080   32.4180 C.3   283  PHE283      0.0534
    109  CG       107.3000   82.4640   33.1010 C.ar  283  PHE283     -0.0203
    110  CD1      107.5570   81.3790   33.9240 C.ar  283  PHE283     -0.0042
    111  CD2      108.2980   83.4110   32.9070 C.ar  283  PHE283     -0.0042
    112  CE1      108.7950   81.2360   34.5410 C.ar  283  PHE283     -0.0003
    113  CE2      109.5330   83.2760   33.5200 C.ar  283  PHE283     -0.0003
    114  CZ       109.7830   82.1840   34.3390 C.ar  283  PHE283     -0.0000
    115  N        107.8030   82.2180   26.2520 N.3   288  LEU288     -0.1231
    116  CA       108.7280   82.5080   27.3340 C.3   288  LEU288      0.1693
    117  C        110.1140   82.7130   26.7420 C.2   288  LEU288      0.2592
    118  O        110.4680   83.8260   26.3440 O.2   288  LEU288     -0.2718
    119  CB       108.7410   81.3530   28.3370 C.3   288  LEU288      0.0284
    120  CG       107.9070   80.1520   27.8950 C.3   288  LEU288      0.0019
    121  CD1      108.6460   79.4610   26.7560 C.3   288  LEU288      0.0001
    122  CD2      107.6470   79.1990   29.0710 C.3   288  LEU288      0.0001
    123  N        110.8970   81.6430   26.6720 N.am  289  LEU289     -0.1966
    124  CA       112.2290   81.7510   26.1120 C.3   289  LEU289      0.1728
    125  C        112.2700   81.3110   24.6560 C.2   289  LEU289      0.2617
    126  O        112.8320   82.0050   23.8130 O.2   289  LEU289     -0.2715
    127  CB       113.2280   80.9430   26.9370 C.3   289  LEU289      0.0311
    128  CG       114.2780   81.8540   27.5740 C.3   289  LEU289      0.0022
    129  CD1      113.9310   82.1290   29.0200 C.3   289  LEU289      0.0001
    130  CD2      115.6320   81.2020   27.4630 C.3   289  LEU289      0.0001
    131  N        111.6700   80.1680   24.3510 N.am  290  THR290     -0.1937
    132  CA       111.6620   79.6820   22.9780 C.3   290  THR290      0.2028
    133  C        110.5280   78.7350   22.6530 C.2   290  THR290      0.2642
    134  O        110.3200   78.4030   21.4870 O.2   290  THR290     -0.2714
    135  CB       112.9560   78.9580   22.6350 C.3   290  THR290      0.1808
    136  OG1      113.4480   78.2920   23.8050 O.3   290  THR290     -0.2208
    137  CG2      113.9810   79.9340   22.0980 C.3   290  THR290      0.0379
    138  N        109.8070   78.2780   23.6720 N.am  291  THR291     -0.1950
    139  CA       108.6930   77.3720   23.4310 C.3   291  THR291      0.1897
    140  C        107.3810   78.1480   23.5420 C.2   291  THR291      0.2313
    141  O        107.3730   79.3390   23.8650 O.2   291  THR291     -0.2863
    142  CB       108.6880   76.1730   24.4250 C.3   291  THR291      0.1794
    143  OG1      108.1790   76.5910   25.6950 O.3   291  THR291     -0.2208
    144  CG2      110.0960   75.6260   24.6070 C.3   291  THR291      0.0378
@<TRIPOS>BOND
     1    12    11    2
     2   134   133    2
     3    19    18    2
     4   137   135    1
     5    11    10    1
     6    11    16   am
     7    13    10    1
     8    13    14    1
     9    18    17    1
    10   135   132    1
    11   135   136    1
    12   133   132    1
    13   133   138   am
    14    17    16    1
    15    17    20    1
    16    10     9    1
    17   132   131    1
    18   139   140    1
    19   139   138    1
    20   139   142    1
    21    21    20    1
    22    21    22    1
    23   140   141    2
    24    14    15    1
    25   126   125    2
    26     9    15    1
    27   131   125   am
    28    23    22    2
    29   142   144    1
    30   142   143    1
    31    22    24   am
    32   125   124    1
    33    80    79    1
    34    78    77    2
    35   124   123    1
    36   124   127    1
    37   115   116    1
    38    77    76    1
    39   118   117    2
    40   123   117   am
    41   117   116    1
    42   121   120    1
    43   127   128    1
    44    79    76    1
    45    79    81    1
    46   116   119    1
    47    76    75    1
    48   130   128    1
    49   128   129    1
    50   120   119    1
    51   120   122    1
    52     4     3    2
    53     3     2    1
    54     8     6    1
    55     6     5    1
    56     6     7    1
    57     2     1    1
    58     2     5    1
    59    28    27    2
    60   101   100    1
    61   101   102    2
    62   100   103    1
    63   100    99    1
    64    34    33    2
    65    27    26    1
    66   107   106    2
    67   106   105    1
    68   108   109    1
    69   108   105    1
    70    37    35    1
    71    99    95   am
    72   111   109   ar
    73   111   113   ar
    74    25    26    1
    75    33    32    1
    76   109   110   ar
    77    26    29    1
    78   105   104    1
    79   113   114   ar
    80    29    30    1
    81    95    96    2
    82    95    94    1
    83   110   112   ar
    84    31    32    1
    85    35    32    1
    86    35    36    1
    87    73    72    2
    88    71    72    1
    89    71    68    1
    90   114   112   ar
    91    72    74   am
    92    94    97    1
    93    94    93    1
    94    69    68    1
    95    69    70    2
    96    68    67    1
    97    97    98    1
    98    44    43    2
    99    53    51   am
   100    43    42    1
   101    43    45   am
   102    42    39    1
   103    91    90    1
   104    51    50    1
   105    51    52    2
   106    41    40    2
   107    88    87    1
   108    88    89    1
   109    50    47    1
   110    40    39    1
   111    39    38    1
   112    87    86    1
   113    46    47    1
   114    90    89    2
   115    90    92    1
   116    64    65    1
   117    64    61    1
   118    49    48    2
   119    85    84    2
   120    47    48    1
   121    65    66    1
   122    84    83    1
   123    86    83    1
   124    62    61    1
   125    62    63    2
   126    61    60    1
   127    59    58    1
   128    83    82    1
   129    66    60    1
   130    57    56    2
   131    58    55    1
   132    56    55    1
   133    55    54    1
