@<TRIPOS>MOLECULE
tmp/1r31A00.pdb
 210 203 0 0 0
SMALL
GASTEIGER

@<TRIPOS>ATOM
      1  N         63.7730  117.3670  119.0860 N.3     4  ARG4       -0.1231
      2  CA        63.6760  117.5760  117.6450 C.3     4  ARG4        0.1694
      3  C         63.2420  118.9820  117.1920 C.2     4  ARG4        0.2592
      4  O         63.6320  119.4330  116.1140 O.2     4  ARG4       -0.2718
      5  CB        62.7870  116.4910  117.0310 C.3     4  ARG4        0.0321
      6  CG        63.4860  115.1280  117.0120 C.3     4  ARG4        0.0489
      7  CD        62.6050  114.0220  116.4760 C.3     4  ARG4        0.2205
      8  NE        61.5470  113.6770  117.4170 N.pl3   4  ARG4       -0.0865
      9  CZ        60.5940  112.7830  117.1760 C.cat   4  ARG4        0.5346
     10  NH1       60.5620  112.1360  116.0180 N.pl3   4  ARG4        0.1354
     11  NH2       59.6680  112.5400  118.0950 N.pl3   4  ARG4        0.1354
     12  N         62.4530  119.6740  118.0100 N.am    5  LEU5       -0.1966
     13  CA        62.0030  121.0380  117.7020 C.3     5  LEU5        0.1713
     14  C         61.5520  121.2980  116.2620 C.2     5  LEU5        0.2458
     15  O         62.1850  122.0610  115.5340 O.2     5  LEU5       -0.2730
     16  CB        63.1100  122.0410  118.0460 C.3     5  LEU5        0.0310
     17  CG        63.6300  122.0450  119.4820 C.3     5  LEU5        0.0022
     18  CD1       64.7190  123.0960  119.6300 C.3     5  LEU5        0.0001
     19  CD2       62.4780  122.3230  120.4370 C.3     5  LEU5        0.0001
     20  N         60.4390  120.6840  115.8380 N.am    6  PRO6       -0.2716
     21  CA        59.9390  120.8810  114.4710 C.3     6  PRO6        0.1536
     22  C         59.6170  122.3410  114.1370 C.2     6  PRO6        0.2598
     23  O         59.0110  123.0510  114.9380 O.2     6  PRO6       -0.2715
     24  CB        58.6960  119.9980  114.4320 C.3     6  PRO6        0.0310
     25  CG        59.0400  118.8950  115.4030 C.3     6  PRO6        0.0237
     26  CD        59.6460  119.6660  116.5460 C.3     6  PRO6        0.0939
     27  N         60.0420  122.7790  112.9530 N.am    7  ALA7       -0.1964
     28  CA        59.7970  124.1430  112.4750 C.3     7  ALA7        0.1728
     29  C         60.5180  125.2550  113.2370 C.2     7  ALA7        0.2616
     30  O         60.3000  126.4320  112.9600 O.2     7  ALA7       -0.2715
     31  CB        58.2970  124.4250  112.4650 C.3     7  ALA7        0.0334
     32  N         61.3750  124.8890  114.1860 N.am    8  PHE8       -0.1960
     33  CA        62.1150  125.8750  114.9770 C.3     8  PHE8        0.1771
     34  C         62.7220  126.9440  114.0730 C.2     8  PHE8        0.2619
     35  O         62.7170  128.1340  114.4050 O.2     8  PHE8       -0.2715
     36  CB        63.2220  125.1800  115.7760 C.3     8  PHE8        0.0574
     37  CG        63.4550  125.7750  117.1390 C.ar    8  PHE8       -0.0200
     38  CD1       62.4090  125.8760  118.0580 C.ar    8  PHE8       -0.0042
     39  CD2       64.7140  126.2220  117.5100 C.ar    8  PHE8       -0.0042
     40  CE1       62.6210  126.4130  119.3250 C.ar    8  PHE8       -0.0003
     41  CE2       64.9370  126.7630  118.7740 C.ar    8  PHE8       -0.0003
     42  CZ        63.8870  126.8580  119.6850 C.ar    8  PHE8       -0.0000
     43  N         63.2240  126.5030  112.9220 N.am    9  ARG9       -0.1977
     44  CA        63.8460  127.3730  111.9280 C.3     9  ARG9        0.1597
     45  C         63.0030  128.5850  111.5630 C.2     9  ARG9        0.2287
     46  O         63.5090  129.7040  111.4930 O.2     9  ARG9       -0.2864
     47  CB        64.0830  126.6180  110.6160 C.3     9  ARG9        0.0334
     48  CG        64.6120  125.2130  110.7320 C.3     9  ARG9        0.0492
     49  CD        64.5920  124.5340  109.3600 C.3     9  ARG9        0.2205
     50  NE        65.1090  125.3980  108.2980 N.pl3   9  ARG9       -0.0865
     51  CZ        65.3090  125.0040  107.0430 C.cat   9  ARG9        0.5346
     52  NH1       65.0350  123.7550  106.6850 N.pl3   9  ARG9        0.1354
     53  NH2       65.7860  125.8570  106.1450 N.pl3   9  ARG9        0.1354
     54  N         59.9920  130.6390  119.6400 N.3    16  ARG16      -0.1245
     55  CA        61.0080  129.6290  119.9700 C.3    16  ARG16       0.1563
     56  C         61.2080  129.5780  121.4830 C.2    16  ARG16       0.2260
     57  O         61.2060  128.5080  122.0860 O.2    16  ARG16      -0.2867
     58  CB        62.3540  129.9650  119.3150 C.3    16  ARG16       0.0307
     59  CG        62.4030  129.8260  117.8060 C.3    16  ARG16       0.0489
     60  CD        63.7680  130.2700  117.2830 C.3    16  ARG16       0.2205
     61  NE        63.8410  130.2310  115.8280 N.pl3  16  ARG16      -0.0865
     62  CZ        64.2780  131.2370  115.0820 C.cat  16  ARG16       0.5346
     63  NH1       64.6820  132.3610  115.6590 N.pl3  16  ARG16       0.1354
     64  NH2       64.3010  131.1210  113.7600 N.pl3  16  ARG16       0.1354
     65  N         69.1680  122.0500  117.8480 N.3    64  SER64      -0.1202
     66  CA        68.1800  120.9900  118.0370 C.3    64  SER64       0.2020
     67  C         68.6960  119.6040  117.6900 C.2    64  SER64       0.2618
     68  O         69.8100  119.4240  117.1930 O.2    64  SER64      -0.2717
     69  CB        66.9570  121.2720  117.1720 C.3    64  SER64       0.2103
     70  OG        67.3080  121.3330  115.8000 O.3    64  SER64      -0.2182
     71  N         67.8880  118.6060  117.9700 N.am   65  ASN65      -0.1974
     72  CA        68.1170  117.1940  117.6730 C.3    65  ASN65       0.1688
     73  C         69.2730  116.4660  118.3230 C.2    65  ASN65       0.2292
     74  O         69.5120  115.2920  118.0150 O.2    65  ASN65      -0.2864
     75  CB        68.1800  117.0230  116.1570 C.3    65  ASN65       0.1181
     76  CG        66.8350  117.1590  115.4930 C.2    65  ASN65       0.2629
     77  OD1       65.8880  116.4380  115.8000 O.2    65  ASN65      -0.2716
     78  ND2       66.7410  118.1150  114.5780 N.am   65  ASN65      -0.0877
     79  N         78.8230  133.9690  113.9080 N.3    81  GLU81      -0.1231
     80  CA        78.9140  133.3570  112.5320 C.3    81  GLU81       0.1687
     81  C         77.7300  132.4880  112.0500 C.2    81  GLU81       0.2472
     82  O         77.2250  131.6450  112.7760 O.2    81  GLU81      -0.2730
     83  CB        80.1800  132.5350  112.4590 C.3    81  GLU81       0.0402
     84  CG        80.5380  132.1330  111.0460 C.3    81  GLU81       0.1161
     85  CD        81.7320  131.1980  110.9670 C.2    81  GLU81       0.3649
     86  OE1       82.4200  131.0150  111.9830 O.co2  81  GLU81      -0.2457
     87  OE2       81.9690  130.6330  109.8780 O.co2  81  GLU81      -0.2457
     88  N         77.2660  132.7790  110.8220 N.am   82  PRO82      -0.2492
     89  CA        76.0940  132.0400  110.3460 C.3    82  PRO82       0.1619
     90  C         76.4090  130.5860  110.0380 C.2    82  PRO82       0.2606
     91  O         77.5780  130.2380  109.8560 O.2    82  PRO82      -0.2715
     92  CB        75.6350  132.8630  109.1410 C.3    82  PRO82       0.0570
     93  CG        76.6090  133.9910  109.0650 C.2    82  PRO82      -0.0077
     94  CD        77.5720  133.7860  110.2000 C.2    82  PRO82       0.0634
     95  N         75.4030  129.7420  109.9420 N.am   83  SER83      -0.1936
     96  CA        75.5270  128.3510  109.5320 C.3    83  SER83       0.2055
     97  C         76.1060  127.3710  110.5520 C.2    83  SER83       0.2643
     98  O         76.1250  126.1660  110.3160 O.2    83  SER83      -0.2714
     99  CB        76.3290  128.2670  108.2260 C.3    83  SER83       0.2130
    100  OG        75.6780  128.9650  107.1790 O.3    83  SER83      -0.2179
    101  N         76.5710  127.8810  111.6840 N.am   84  ILE84      -0.1963
    102  CA        77.1080  127.0190  112.7300 C.3    84  ILE84       0.1727
    103  C         75.9760  126.2050  113.3560 C.2    84  ILE84       0.2616
    104  O         76.0040  124.9730  113.4000 O.2    84  ILE84      -0.2715
    105  CB        77.8620  127.8480  113.7930 C.3    84  ILE84       0.0290
    106  CG1       79.0810  128.5200  113.1610 C.3    84  ILE84       0.0022
    107  CG2       78.2820  126.9660  114.9760 C.3    84  ILE84       0.0023
    108  CD1       79.9290  129.2930  114.1410 C.3    84  ILE84       0.0001
    109  N         74.9690  126.9530  113.8570 N.am   85  VAL85      -0.1963
    110  CA        73.8320  126.3790  114.5380 C.3    85  VAL85       0.1727
    111  C         73.0260  125.4350  113.6400 C.2    85  VAL85       0.2616
    112  O         72.6010  124.3650  114.0760 O.2    85  VAL85      -0.2715
    113  CB        72.9030  127.4570  115.1140 C.3    85  VAL85       0.0290
    114  CG1       71.7030  126.8160  115.7810 C.3    85  VAL85       0.0023
    115  CG2       73.6500  128.3330  116.0980 C.3    85  VAL85       0.0023
    116  N         72.7990  125.8360  112.3920 N.am   86  ALA86      -0.1963
    117  CA        72.0450  124.9960  111.4550 C.3    86  ALA86       0.1728
    118  C         72.7960  123.7060  111.1240 C.2    86  ALA86       0.2616
    119  O         72.1960  122.6300  111.0860 O.2    86  ALA86      -0.2715
    120  CB        71.7450  125.7740  110.1650 C.3    86  ALA86       0.0334
    121  N         74.1020  123.8120  110.8850 N.am   87  ALA87      -0.1977
    122  CA        74.9100  122.6340  110.5610 C.3    87  ALA87       0.1597
    123  C         74.9180  121.6440  111.7210 C.2    87  ALA87       0.2287
    124  O         74.7640  120.4410  111.5230 O.2    87  ALA87      -0.2864
    125  CB        76.3480  123.0490  110.2160 C.3    87  ALA87       0.0319
    126  N         72.6990  121.2970  114.1220 N.3    89  SER89      -0.1202
    127  CA        71.3540  120.7290  114.2440 C.3    89  SER89       0.2020
    128  C         71.0740  119.6640  113.1890 C.2    89  SER89       0.2619
    129  O         70.5220  118.6130  113.4990 O.2    89  SER89      -0.2717
    130  CB        70.2930  121.8330  114.1210 C.3    89  SER89       0.2103
    131  OG        70.4250  122.8000  115.1500 O.3    89  SER89      -0.2182
    132  N         71.4530  119.9450  111.9440 N.am   90  TYR90      -0.1961
    133  CA        71.2320  119.0000  110.8520 C.3    90  TYR90       0.1771
    134  C         72.0270  117.7090  111.0560 C.2    90  TYR90       0.2619
    135  O         71.4780  116.6190  110.9310 O.2    90  TYR90      -0.2715
    136  CB        71.5920  119.6460  109.5080 C.3    90  TYR90       0.0574
    137  CG        71.3490  118.7690  108.2850 C.ar   90  TYR90      -0.0198
    138  CD1       70.3560  117.7830  108.2830 C.ar   90  TYR90      -0.0009
    139  CD2       72.0820  118.9620  107.1130 C.ar   90  TYR90      -0.0009
    140  CE1       70.1000  117.0160  107.1460 C.ar   90  TYR90       0.0417
    141  CE2       71.8330  118.2020  105.9700 C.ar   90  TYR90       0.0417
    142  CZ        70.8430  117.2330  105.9940 C.ar   90  TYR90       0.1957
    143  OH        70.6000  116.4890  104.8620 O.3    90  TYR90      -0.2866
    144  N         73.3100  117.8270  111.3770 N.am   91  MET91      -0.1977
    145  CA        74.1280  116.6380  111.5990 C.3    91  MET91       0.1605
    146  C         73.6290  115.8400  112.8070 C.2    91  MET91       0.2287
    147  O         73.6850  114.6120  112.8120 O.2    91  MET91      -0.2864
    148  CB        75.6000  117.0260  111.7720 C.3    91  MET91       0.0413
    149  CG        76.2330  117.6070  110.4960 C.3    91  MET91       0.0598
    150  SD        76.0640  116.5060  109.0470 S.3    91  MET91      -0.1393
    151  CE        74.6160  117.1430  108.2640 C.3    91  MET91       0.0692
    152  N         70.5980  115.5820  113.6660 N.3    93  LYS93      -0.1245
    153  CA        69.3940  114.9160  113.1780 C.3    93  LYS93       0.1561
    154  C         69.7440  113.5790  112.5220 C.2    93  LYS93       0.2260
    155  O         69.0970  112.5630  112.7740 O.2    93  LYS93      -0.2867
    156  CB        68.6720  115.8170  112.1700 C.3    93  LYS93       0.0271
    157  CG        67.3220  115.2880  111.6760 C.3    93  LYS93       0.0035
    158  CD        66.6620  116.3030  110.7420 C.3    93  LYS93       0.0206
    159  CE        65.2510  115.9030  110.3490 C.3    93  LYS93       0.1093
    160  NZ        65.2280  114.6750  109.5180 N.3    93  LYS93      -0.1314
    161  N         84.2070  125.9030  116.1620 N.3   269  ASN269     -0.1240
    162  CA        83.0370  126.7230  115.8240 C.3   269  ASN269      0.1653
    163  C         81.8500  126.1380  116.5910 C.2   269  ASN269      0.2266
    164  O         80.9040  126.8420  116.9320 O.2   269  ASN269     -0.2867
    165  CB        82.7110  126.6550  114.3270 C.3   269  ASN269      0.1155
    166  CG        83.3200  127.7900  113.5290 C.2   269  ASN269      0.2627
    167  OD1       83.9050  128.7310  114.0770 O.2   269  ASN269     -0.2716
    168  ND2       83.1750  127.7090  112.2110 N.am  269  ASN269     -0.0877
    169  N         79.8240  119.4570  114.2810 N.3   362  GLN362     -0.1245
    170  CA        80.1910  120.6240  113.4890 C.3   362  GLN362      0.1566
    171  C         81.2110  120.2300  112.4210 C.2   362  GLN362      0.2260
    172  O         81.0620  120.5930  111.2590 O.2   362  GLN362     -0.2867
    173  CB        80.7720  121.7120  114.3930 C.3   362  GLN362      0.0367
    174  CG        80.8220  123.0960  113.7640 C.3   362  GLN362      0.0905
    175  CD        79.4550  123.5960  113.3440 C.2   362  GLN362      0.2608
    176  OE1       78.4840  123.4600  114.0810 O.2   362  GLN362     -0.2717
    177  NE2       79.3750  124.1910  112.1580 N.am  362  GLN362     -0.0878
    178  N         79.5340  118.3520  109.6540 N.3   365  GLY365     -0.1210
    179  CA        78.7680  119.2270  108.7890 C.3   365  GLY365      0.1956
    180  C         79.6280  119.9750  107.7770 C.2   365  GLY365      0.2611
    181  O         79.2710  120.0800  106.6090 O.2   365  GLY365     -0.2717
    182  N         80.7640  120.4970  108.2220 N.am  366  ALA366     -0.1979
    183  CA        81.6550  121.2470  107.3440 C.3   366  ALA366      0.1597
    184  C         82.2140  120.3810  106.2170 C.2   366  ALA366      0.2287
    185  O         82.2620  120.8030  105.0660 O.2   366  ALA366     -0.2864
    186  CB        82.8000  121.8510  108.1560 C.3   366  ALA366      0.0319
    187  N         80.9560  117.4590  105.0520 N.3   368  ARG368     -0.1231
    188  CA        79.8990  116.9740  104.1760 C.3   368  ARG368      0.1694
    189  C         79.6340  118.0060  103.0930 C.2   368  ARG368      0.2591
    190  O         79.4650  117.6520  101.9340 O.2   368  ARG368     -0.2718
    191  CB        78.6030  116.7320  104.9520 C.3   368  ARG368      0.0321
    192  CG        77.4910  116.1110  104.1040 C.3   368  ARG368      0.0489
    193  CD        76.1220  116.3050  104.7390 C.3   368  ARG368      0.2205
    194  NE        75.6900  117.6940  104.6360 N.pl3 368  ARG368     -0.0865
    195  CZ        75.3450  118.2850  103.4960 C.cat 368  ARG368      0.5346
    196  NH1       75.3730  117.6020  102.3580 N.pl3 368  ARG368      0.1354
    197  NH2       74.9870  119.5610  103.4900 N.pl3 368  ARG368      0.1354
    198  N         79.6050  119.2800  103.4780 N.am  369  ALA369     -0.1980
    199  CA        79.3560  120.3650  102.5350 C.3   369  ALA369      0.1597
    200  C         80.5250  120.5410  101.5640 C.2   369  ALA369      0.2287
    201  O         80.3280  120.6430  100.3520 O.2   369  ALA369     -0.2864
    202  CB        79.1000  121.6720  103.2930 C.3   369  ALA369      0.0319
    203  N         81.1850  124.6260  100.0130 N.3   375  ILE375     -0.1245
    204  CA        81.1390  125.3350  101.3110 C.3   375  ILE375      0.1561
    205  C         80.3300  126.5830  101.2940 C.2   375  ILE375      0.2260
    206  O         79.8140  127.0730  102.2960 O.2   375  ILE375     -0.2867
    207  CB        82.5600  125.7650  101.7210 C.3   375  ILE375      0.0252
    208  CG1       82.4920  126.5710  103.0250 C.3   375  ILE375      0.0019
    209  CG2       83.2400  126.5600  100.6210 C.3   375  ILE375      0.0019
    210  CD1       81.6810  125.8990  104.1140 C.3   375  ILE375      0.0001
@<TRIPOS>BOND
     1   203   204    1
     2   201   200    2
     3   209   207    1
     4   205   204    1
     5   205   206    2
     6   204   207    1
     7   200   199    1
     8   207   208    1
     9   190   189    2
    10   196   195    1
    11   199   202    1
    12   199   198    1
    13   208   210    1
    14   189   198   am
    15   189   188    1
    16   197   195    1
    17   195   194    2
    18   192   193    1
    19   192   191    1
    20   188   191    1
    21   188   187    1
    22   194   193    1
    23   143   142    1
    24   185   184    2
    25   141   142   ar
    26   141   139   ar
    27   142   140   ar
    28    53    51    1
    29   184   183    1
    30   181   180    2
    31    52    51    1
    32    51    50    2
    33   139   137   ar
    34   140   138   ar
    35   100    99    1
    36   183   186    1
    37   183   182    1
    38   180   182   am
    39   180   179    1
    40    99    96    1
    41   151   150    1
    42   138   137   ar
    43   137   136    1
    44    50    49    1
    45   179   178    1
    46   150   149    1
    47    93    92    1
    48    93    94    2
    49    92    89    1
    50    49    48    1
    51   136   133    1
    52   160   159    1
    53    96    95    1
    54    96    97    1
    55    91    90    2
    56    87    85   ar
    57    95    90   am
    58    90    89    1
    59   120   117    1
    60    94    88    1
    61   125   122    1
    62    98    97    2
    63    89    88    1
    64   159   158    1
    65   149   148    1
    66    97   101   am
    67   122   121    1
    68   122   123    1
    69    47    48    1
    70    47    44    1
    71   158   157    1
    72    88    81   am
    73   133   134    1
    74   133   132    1
    75   121   118   am
    76   135   134    2
    77    85    84    1
    78    85    86   ar
    79    84    83    1
    80   134   144   am
    81   119   118    2
    82   118   117    1
    83   172   171    2
    84   144   145    1
    85   117   116    1
    86    46    45    2
    87   124   123    2
    88    45    44    1
    89   145   148    1
    90   145   146    1
    91   157   156    1
    92   101   102    1
    93    44    43    1
    94   132   128   am
    95    81    80    1
    96    81    82    2
    97   177   175   am
    98   156   153    1
    99   168   166   am
   100   116   111   am
   101   171   170    1
   102    83    80    1
   103    31    28    1
   104    28    27    1
   105    28    29    1
   106   154   155    2
   107   154   153    1
   108    80    79    1
   109   102   103    1
   110   102   105    1
   111   146   147    2
   112    43    34   am
   113    27    22   am
   114    30    29    2
   115   106   105    1
   116   106   108    1
   117   153   152    1
   118   128   129    2
   119   128   127    1
   120    29    32   am
   121   175   174    1
   122   175   176    2
   123   103   104    2
   124   103   109   am
   125   170   169    1
   126   170   173    1
   127   166   167    2
   128   166   165    1
   129   111   112    2
   130   111   110    1
   131    64    62    1
   132   174   173    1
   133   105   107    1
   134   109   110    1
   135    34    35    2
   136    34    33    1
   137   130   127    1
   138   130   131    1
   139   126   127    1
   140    22    21    1
   141    22    23    2
   142    32    33    1
   143   165   162    1
   144    24    21    1
   145    24    25    1
   146    21    20    1
   147   110   113    1
   148    78    76   am
   149    33    36    1
   150    62    63    1
   151    62    61    2
   152   113   114    1
   153   113   115    1
   154    25    26    1
   155    76    77    2
   156    76    75    1
   157    15    14    2
   158    36    37    1
   159    70    69    1
   160   162   161    1
   161   162   163    1
   162    61    60    1
   163    20    14   am
   164    20    26    1
   165    10     9    1
   166     4     3    2
   167    75    72    1
   168    14    13    1
   169     7     6    1
   170     7     8    1
   171   163   164    2
   172     6     5    1
   173     5     2    1
   174    37    39   ar
   175    37    38   ar
   176    69    66    1
   177     9     8    2
   178     9    11    1
   179     3     2    1
   180     3    12   am
   181    68    67    2
   182    60    59    1
   183    39    41   ar
   184     2     1    1
   185    72    71    1
   186    72    73    1
   187    67    71   am
   188    67    66    1
   189    13    12    1
   190    13    16    1
   191    59    58    1
   192    65    66    1
   193    74    73    2
   194    16    17    1
   195    38    40   ar
   196    41    42   ar
   197    58    55    1
   198    40    42   ar
   199    17    18    1
   200    17    19    1
   201    54    55    1
   202    55    56    1
   203    56    57    2
