@<TRIPOS>MOLECULE
tmp/1r35A02.pdb
 159 160 0 0 0
SMALL
GASTEIGER

@<TRIPOS>ATOM
      1  N        120.1760  108.9020   27.6910 N.3   111  CYS111     -0.1235
      2  CA       121.0180  110.0590   27.3310 C.3   111  CYS111      0.1677
      3  C        120.7120  110.7130   25.9760 C.2   111  CYS111      0.2270
      4  O        120.7680  110.0420   24.9390 O.2   111  CYS111     -0.2867
      5  CB       122.5200  109.6600   27.3660 C.3   111  CYS111      0.0956
      6  SG       123.7430  110.9470   26.8500 S.3   111  CYS111     -0.0801
      7  N        127.7470  112.2310   42.0760 N.3   174  GLN174     -0.1245
      8  CA       128.4220  113.0200   41.0390 C.3   174  GLN174      0.1566
      9  C        129.7640  113.5090   41.6030 C.2   174  GLN174      0.2260
     10  O        129.8960  113.7460   42.8120 O.2   174  GLN174     -0.2867
     11  CB       127.5900  114.2440   40.6520 C.3   174  GLN174      0.0367
     12  CG       126.3090  113.9900   39.8760 C.3   174  GLN174      0.0905
     13  CD       125.4530  115.2570   39.7470 C.2   174  GLN174      0.2608
     14  OE1      124.2740  115.2660   40.1040 O.2   174  GLN174     -0.2717
     15  NE2      126.0540  116.3300   39.2600 N.am  174  GLN174     -0.0878
     16  N        125.7920  127.4880   39.9770 N.3   257  TRP257     -0.1227
     17  CA       125.8490  126.0450   39.8260 C.3   257  TRP257      0.1737
     18  C        127.2040  125.6880   39.2410 C.2   257  TRP257      0.2595
     19  O        127.8410  126.5220   38.5950 O.2   257  TRP257     -0.2718
     20  CB       124.7260  125.5440   38.9070 C.3   257  TRP257      0.0564
     21  CG       124.3690  124.1110   39.1750 C.ar  257  TRP257      0.0003
     22  CD1      124.7490  123.0140   38.4460 C.ar  257  TRP257      0.0946
     23  CD2      123.6320  123.6080   40.3000 C.ar  257  TRP257      0.0152
     24  NE1      124.3060  121.8690   39.0570 N.ar  257  TRP257     -0.2442
     25  CE2      123.6200  122.2010   40.1950 C.ar  257  TRP257      0.0810
     26  CE3      122.9910  124.2120   41.3920 C.ar  257  TRP257      0.0012
     27  CZ2      122.9990  121.3880   41.1370 C.ar  257  TRP257      0.0191
     28  CZ3      122.3770  123.4070   42.3340 C.ar  257  TRP257      0.0001
     29  CH2      122.3860  122.0060   42.2000 C.ar  257  TRP257      0.0015
     30  N        127.6620  124.4670   39.5020 N.am  258  TYR258     -0.1976
     31  CA       128.9350  124.0010   38.9550 C.3   258  TYR258      0.1639
     32  C        128.7850  123.7420   37.4590 C.2   258  TYR258      0.2290
     33  O        127.6930  123.4520   36.9740 O.2   258  TYR258     -0.2864
     34  CB       129.4320  122.7500   39.6880 C.3   258  TYR258      0.0560
     35  CG       128.3900  121.6720   39.9270 C.ar  258  TYR258     -0.0198
     36  CD1      127.6190  121.6710   41.0870 C.ar  258  TYR258     -0.0009
     37  CD2      128.1970  120.6450   39.0140 C.ar  258  TYR258     -0.0009
     38  CE1      126.6860  120.6760   41.3320 C.ar  258  TYR258      0.0417
     39  CE2      127.2540  119.6360   39.2490 C.ar  258  TYR258      0.0417
     40  CZ       126.5010  119.6610   40.4100 C.ar  258  TYR258      0.1957
     41  OH       125.5350  118.7060   40.6380 O.3   258  TYR258     -0.2866
     42  N        129.0290  118.3220   34.8390 N.3   261  PRO261     -0.2102
     43  CA       128.0530  117.2680   35.1000 C.3   261  PRO261      0.1504
     44  C        128.8150  115.9450   34.9590 C.2   261  PRO261      0.2576
     45  O        129.0860  115.4660   33.8490 O.2   261  PRO261     -0.2718
     46  CB       127.0290  117.4840   33.9910 C.3   261  PRO261      0.0282
     47  CG       127.8820  117.8750   32.8280 C.3   261  PRO261      0.0208
     48  CD       128.9460  118.7810   33.4360 C.3   261  PRO261      0.0893
     49  N        129.2110  115.3850   36.0940 N.am  262  ALA262     -0.1966
     50  CA       129.9920  114.1590   36.0680 C.3   262  ALA262      0.1728
     51  C        129.4220  113.0310   36.9290 C.2   262  ALA262      0.2616
     52  O        129.4970  113.0730   38.1630 O.2   262  ALA262     -0.2715
     53  CB       131.4350  114.4740   36.4610 C.3   262  ALA262      0.0334
     54  N        128.8150  112.0510   36.2620 N.am  263  VAL263     -0.1977
     55  CA       128.2170  110.8840   36.9330 C.3   263  VAL263      0.1596
     56  C        129.3320  110.0620   37.5530 C.2   263  VAL263      0.2287
     57  O        130.2520  109.6340   36.8630 O.2   263  VAL263     -0.2864
     58  CB       127.4420  110.0210   35.9390 C.3   263  VAL263      0.0276
     59  CG1      126.8360  108.8070   36.6520 C.3   263  VAL263      0.0022
     60  CG2      126.3620  110.8590   35.2700 C.3   263  VAL263      0.0022
     61  N        132.3090  109.5560   34.6490 N.3   280  PHE280     -0.1227
     62  CA       132.3230  110.1190   33.3140 C.3   280  PHE280      0.1736
     63  C        131.6040  111.4470   33.3160 C.2   280  PHE280      0.2595
     64  O        130.8700  111.7720   34.2620 O.2   280  PHE280     -0.2718
     65  CB       131.6970  109.1590   32.2880 C.3   280  PHE280      0.0547
     66  CG       130.2750  108.7670   32.5950 C.ar  280  PHE280     -0.0202
     67  CD1      129.9880  107.5220   33.1370 C.ar  280  PHE280     -0.0042
     68  CD2      129.2220  109.6390   32.3290 C.ar  280  PHE280     -0.0042
     69  CE1      128.6780  107.1470   33.4100 C.ar  280  PHE280     -0.0003
     70  CE2      127.9140  109.2770   32.5980 C.ar  280  PHE280     -0.0003
     71  CZ       127.6430  108.0310   33.1390 C.ar  280  PHE280     -0.0000
     72  N        131.7760  112.1990   32.2380 N.am  281  ASN281     -0.1960
     73  CA       131.1260  113.4840   32.1530 C.3   281  ASN281      0.1819
     74  C        130.9370  113.9170   30.7180 C.2   281  ASN281      0.2622
     75  O        131.6370  113.4650   29.8110 O.2   281  ASN281     -0.2715
     76  CB       131.9750  114.5430   32.8690 C.3   281  ASN281      0.1195
     77  CG       133.1840  114.9560   32.0540 C.2   281  ASN281      0.2630
     78  OD1      134.2340  114.3100   32.1080 O.2   281  ASN281     -0.2716
     79  ND2      133.0200  115.9890   31.2330 N.am  281  ASN281     -0.0877
     80  N        129.9650  114.7990   30.5400 N.am  282  GLY282     -0.1940
     81  CA       129.7100  115.4010   29.2480 C.3   282  GLY282      0.2014
     82  C        129.5620  116.8450   29.6790 C.2   282  GLY282      0.2639
     83  O        130.2350  117.2710   30.6320 O.2   282  GLY282     -0.2714
     84  N        128.7080  117.5990   28.9950 N.am  283  TRP283     -0.1959
     85  CA       128.4370  118.9810   29.3800 C.3   283  TRP283      0.1771
     86  C        126.9530  119.0800   29.7130 C.2   283  TRP283      0.2620
     87  O        126.1930  118.1430   29.4760 O.2   283  TRP283     -0.2715
     88  CB       128.8540  119.9710   28.2970 C.3   283  TRP283      0.0590
     89  CG       128.3870  119.6510   26.9380 C.ar  283  TRP283      0.0006
     90  CD1      127.1320  119.8150   26.4520 C.ar  283  TRP283      0.0946
     91  CD2      129.1850  119.1790   25.8480 C.ar  283  TRP283      0.0152
     92  NE1      127.0930  119.4910   25.1190 N.ar  283  TRP283     -0.2442
     93  CE2      128.3370  119.0920   24.7190 C.ar  283  TRP283      0.0810
     94  CE3      130.5340  118.8200   25.7130 C.ar  283  TRP283      0.0012
     95  CZ2      128.7870  118.6610   23.4700 C.ar  283  TRP283      0.0191
     96  CZ3      130.9890  118.3880   24.4660 C.ar  283  TRP283      0.0001
     97  CH2      130.1150  118.3110   23.3610 C.ar  283  TRP283      0.0015
     98  N        126.5450  120.1850   30.3100 N.am  284  TYR284     -0.1960
     99  CA       125.1510  120.3580   30.7130 C.3   284  TYR284      0.1771
    100  C        124.1360  120.6970   29.6250 C.2   284  TYR284      0.2619
    101  O        124.4780  121.2000   28.5600 O.2   284  TYR284     -0.2715
    102  CB       125.0650  121.4440   31.7810 C.3   284  TYR284      0.0574
    103  CG       125.0880  120.9510   33.1990 C.ar  284  TYR284     -0.0198
    104  CD1      124.0340  120.1930   33.7150 C.ar  284  TYR284     -0.0009
    105  CD2      126.1400  121.2860   34.0540 C.ar  284  TYR284     -0.0009
    106  CE1      124.0270  119.7860   35.0550 C.ar  284  TYR284      0.0417
    107  CE2      126.1400  120.8820   35.3980 C.ar  284  TYR284      0.0417
    108  CZ       125.0770  120.1340   35.8900 C.ar  284  TYR284      0.1957
    109  OH       125.0520  119.7650   37.2220 O.3   284  TYR284     -0.2866
    110  N        122.8870  120.3330   29.8960 N.am  285  MET285     -0.1977
    111  CA       121.7610  120.6680   29.0400 C.3   285  MET285      0.1605
    112  C        121.0770  121.6290   30.0070 C.2   285  MET285      0.2287
    113  O        120.8700  121.2860   31.1790 O.2   285  MET285     -0.2864
    114  CB       120.8630  119.4500   28.7580 C.3   285  MET285      0.0413
    115  CG       119.4570  119.8320   28.2350 C.3   285  MET285      0.0598
    116  SD       118.4080  118.4410   27.7280 S.3   285  MET285     -0.1393
    117  CE       118.8580  118.4930   26.1300 C.3   285  MET285      0.0692
    118  N        118.5410  120.7620   33.0160 N.3   288  GLU288     -0.1245
    119  CA       118.9790  119.9670   34.1600 C.3   288  GLU288      0.1567
    120  C        119.1300  120.9010   35.3550 C.2   288  GLU288      0.2260
    121  O        118.6870  120.6010   36.4680 O.2   288  GLU288     -0.2867
    122  CB       120.3180  119.2840   33.8660 C.3   288  GLU288      0.0388
    123  CG       120.3040  118.3140   32.7090 C.3   288  GLU288      0.1160
    124  CD       121.6540  117.6300   32.5220 C.2   288  GLU288      0.3649
    125  OE1      122.3350  117.9070   31.5090 O.co2 288  GLU288     -0.2457
    126  OE2      122.0420  116.8240   33.3930 O.co2 288  GLU288     -0.2457
    127  N        117.2560  120.9800   38.9550 N.3   293  ASP293     -0.1239
    128  CA       118.0410  121.3520   40.1440 C.3   293  ASP293      0.1674
    129  C        117.4820  122.5710   40.8870 C.2   293  ASP293      0.2266
    130  O        117.4170  122.5860   42.1230 O.2   293  ASP293     -0.2867
    131  CB       119.5010  121.6230   39.7730 C.3   293  ASP293      0.1410
    132  CG       120.1660  120.4460   39.1030 C.2   293  ASP293      0.3668
    133  OD1      119.7130  119.3020   39.3020 O.co2 293  ASP293     -0.2456
    134  OD2      121.1510  120.6730   38.3670 O.co2 293  ASP293     -0.2456
    135  N        114.5690  119.8310   45.4130 N.3   299  ARG299     -0.1245
    136  CA       115.9320  120.3170   45.2440 C.3   299  ARG299      0.1563
    137  C        116.0090  121.7560   45.7710 C.2   299  ARG299      0.2260
    138  O        115.7600  121.9920   46.9570 O.2   299  ARG299     -0.2867
    139  CB       116.3560  120.2290   43.7810 C.3   299  ARG299      0.0307
    140  CG       116.2360  118.8370   43.1840 C.3   299  ARG299      0.0489
    141  CD       117.2270  117.8510   43.7670 C.3   299  ARG299      0.2205
    142  NE       118.5980  118.2890   43.5600 N.pl3 299  ARG299     -0.0865
    143  CZ       119.2230  118.3030   42.3860 C.cat 299  ARG299      0.5346
    144  NH1      118.6090  117.8970   41.2830 N.pl3 299  ARG299      0.1354
    145  NH2      120.4690  118.7440   42.3140 N.pl3 299  ARG299      0.1354
    146  N        112.9730  109.5240   29.7080 N.3   374  TRP374     -0.1241
    147  CA       114.1330  110.3080   30.1280 C.3   374  TRP374      0.1605
    148  C        114.6020  111.2820   29.0510 C.2   374  TRP374      0.2264
    149  O        115.0740  112.3640   29.3700 O.2   374  TRP374     -0.2867
    150  CB       115.2860  109.3840   30.5540 C.3   374  TRP374      0.0550
    151  CG       115.2920  109.0680   32.0250 C.ar  374  TRP374      0.0003
    152  CD1      114.3230  108.4240   32.7370 C.ar  374  TRP374      0.0946
    153  CD2      116.3160  109.4190   32.9700 C.ar  374  TRP374      0.0152
    154  NE1      114.6760  108.3530   34.0720 N.ar  374  TRP374     -0.2442
    155  CE2      115.8940  108.9570   34.2400 C.ar  374  TRP374      0.0810
    156  CE3      117.5460  110.0840   32.8650 C.ar  374  TRP374      0.0012
    157  CZ2      116.6580  109.1380   35.3950 C.ar  374  TRP374      0.0191
    158  CZ3      118.3070  110.2670   34.0130 C.ar  374  TRP374      0.0001
    159  CH2      117.8580  109.7940   35.2650 C.ar  374  TRP374      0.0015
@<TRIPOS>BOND
     1    97    95   ar
     2    97    96   ar
     3    95    93   ar
     4    96    94   ar
     5    93    92   ar
     6    93    91   ar
     7     4     3    2
     8    92    90   ar
     9    94    91   ar
    10    91    89   ar
    11     3     2    1
    12   117   116    1
    13    90    89   ar
    14     6     5    1
    15    89    88    1
    16     2     5    1
    17     2     1    1
    18   116   115    1
    19   115   114    1
    20    88    85    1
    21   101   100    2
    22   114   111    1
    23    84    85    1
    24    84    82   am
    25   111   110    1
    26   111   112    1
    27   148   149    2
    28   148   147    1
    29    81    82    1
    30    81    80    1
    31    85    86    1
    32    87    86    2
    33   100   110   am
    34   100    99    1
    35    82    83    2
    36   146   147    1
    37    86    98   am
    38    75    74    2
    39   112   113    2
    40   147   150    1
    41    98    99    1
    42    80    74   am
    43   150   151    1
    44    99   102    1
    45    74    73    1
    46    79    77   am
    47   125   124   ar
    48   102   103    1
    49   151   152   ar
    50   151   153   ar
    51    77    78    2
    52    77    76    1
    53    73    72    1
    54    73    76    1
    55    72    63   am
    56    65    66    1
    57    65    62    1
    58    68    66   ar
    59    68    70   ar
    60   124   123    1
    61   124   126   ar
    62    66    67   ar
    63    70    71   ar
    64   123   122    1
    65   152   154   ar
    66    47    48    1
    67    47    46    1
    68   156   153   ar
    69   156   158   ar
    70   153   155   ar
    71   118   119    1
    72    67    69   ar
    73    71    69   ar
    74   103   104   ar
    75   103   105   ar
    76    62    63    1
    77    62    61    1
    78    63    64    2
    79    48    42    1
    80   104   106   ar
    81    45    44    2
    82   122   119    1
    83    46    43    1
    84   158   159   ar
    85   105   107   ar
    86   154   155   ar
    87   119   120    1
    88   155   157   ar
    89    42    43    1
    90    44    43    1
    91    44    49   am
    92   106   108   ar
    93   159   157   ar
    94    60    58    1
    95   120   121    2
    96   107   108   ar
    97   108   109    1
    98    58    59    1
    99    58    55    1
   100    50    49    1
   101    50    53    1
   102    50    51    1
   103    54    51   am
   104    54    55    1
   105    57    56    2
   106    51    52    2
   107    55    56    1
   108    33    32    2
   109    32    31    1
   110   134   132   ar
   111    22    24   ar
   112    22    21   ar
   113    19    18    2
   114    20    21    1
   115    20    17    1
   116   127   128    1
   117    31    30    1
   118    31    34    1
   119    37    39   ar
   120    37    35   ar
   121    24    25   ar
   122   132   133   ar
   123   132   131    1
   124    21    23   ar
   125    18    30   am
   126    18    17    1
   127    39    40   ar
   128    15    13   am
   129    34    35    1
   130    13    12    1
   131    13    14    2
   132   131   128    1
   133    17    16    1
   134    12    11    1
   135    35    36   ar
   136   128   129    1
   137    25    23   ar
   138    25    27   ar
   139    23    26   ar
   140    40    41    1
   141    40    38   ar
   142    11     8    1
   143   129   130    2
   144     8     9    1
   145     8     7    1
   146    36    38   ar
   147    27    29   ar
   148   144   143    1
   149    26    28   ar
   150     9    10    2
   151    29    28   ar
   152   145   143    1
   153   143   142    2
   154   140   141    1
   155   140   139    1
   156   142   141    1
   157   139   136    1
   158   136   135    1
   159   136   137    1
   160   137   138    2
