@<TRIPOS>MOLECULE
tmp/1r3qA00.pdb
 250 245 0 0 0
SMALL
GASTEIGER

@<TRIPOS>ATOM
      1  N         19.7220   71.3170   56.8640 N.3    27  MET27      -0.1230
      2  CA        18.7950   71.6780   57.9400 C.3    27  MET27       0.1702
      3  C         17.3850   71.7850   57.3690 C.2    27  MET27       0.2592
      4  O         17.1740   72.3050   56.2470 O.2    27  MET27      -0.2718
      5  CB        19.2450   72.9740   58.6330 C.3    27  MET27       0.0401
      6  CG        20.3460   72.6660   59.6580 C.3    27  MET27       0.0596
      7  SD        20.9970   74.1310   60.4960 S.3    27  MET27      -0.1393
      8  CE        21.9140   74.9410   59.1330 C.3    27  MET27       0.0692
      9  N         16.4280   71.2600   58.1220 N.am   28  ARG28      -0.1962
     10  CA        15.0310   71.1720   57.7090 C.3    28  ARG28       0.1772
     11  C         14.8220   70.3560   56.4420 C.2    28  ARG28       0.2620
     12  O         13.8920   70.5740   55.6680 O.2    28  ARG28      -0.2715
     13  CB        14.3680   72.5690   57.6870 C.3    28  ARG28       0.0603
     14  CG        13.2220   72.6610   58.6570 C.2    28  ARG28       0.0163
     15  CD        13.5670   72.6100   60.1460 C.2    28  ARG28       0.1886
     16  NE        14.9870   72.7560   60.5170 N.pl3  28  ARG28      -0.0578
     17  CZ        15.5870   73.8960   60.9100 C.cat  28  ARG28       0.5393
     18  NH1       16.8650   73.9030   61.2190 N.pl3  28  ARG28       0.1358
     19  NH2       14.9250   75.0390   60.9810 N.pl3  28  ARG28       0.1358
     20  N         15.6500   69.3310   56.2780 N.am   29  GLN29      -0.1963
     21  CA        15.5150   68.4190   55.1220 C.3    29  GLN29       0.1733
     22  C         14.2000   67.7140   55.1360 C.2    29  GLN29       0.2616
     23  O         13.6900   67.3490   54.0640 O.2    29  GLN29      -0.2715
     24  CB        16.6690   67.4480   54.9990 C.3    29  GLN29       0.0408
     25  CG        16.9740   66.6270   56.2310 C.3    29  GLN29       0.0908
     26  CD        18.2930   65.8540   56.0830 C.2    29  GLN29       0.2608
     27  OE1       19.2550   66.3580   55.5280 O.2    29  GLN29      -0.2717
     28  NE2       18.3030   64.6020   56.5300 N.am   29  GLN29      -0.0878
     29  N         13.6180   67.4850   56.3270 N.am   30  ALA30      -0.1963
     30  CA        12.2210   67.1130   56.4240 C.3    30  ALA30       0.1728
     31  C         11.4060   68.3980   56.5940 C.2    30  ALA30       0.2617
     32  O         11.4270   69.0600   57.6280 O.2    30  ALA30      -0.2715
     33  CB        11.9760   66.1460   57.5520 C.3    30  ALA30       0.0334
     34  N         10.7210   68.8180   55.5410 N.am   31  GLY31      -0.1940
     35  CA        10.0440   70.0860   55.6030 C.3    31  GLY31       0.2014
     36  C          9.0600   70.2450   54.4620 C.2    31  GLY31       0.2638
     37  O          8.9580   69.3520   53.6150 O.2    31  GLY31      -0.2714
     38  N          8.3580   71.3760   54.4730 N.am   32  ARG32      -0.1977
     39  CA         7.2040   71.6040   53.6220 C.3    32  ARG32       0.1597
     40  C          7.5520   71.7340   52.1410 C.2    32  ARG32       0.2287
     41  O          6.6550   71.6880   51.2760 O.2    32  ARG32      -0.2864
     42  CB         6.4840   72.8600   54.0890 C.3    32  ARG32       0.0334
     43  CG         5.7450   72.6390   55.3820 C.3    32  ARG32       0.0492
     44  CD         4.7290   73.7380   55.6590 C.3    32  ARG32       0.2205
     45  NE         3.5020   73.5190   54.9180 N.pl3  32  ARG32      -0.0865
     46  CZ         2.5870   72.5800   55.1910 C.cat  32  ARG32       0.5346
     47  NH1        2.7100   71.7410   56.2320 N.pl3  32  ARG32       0.1354
     48  NH2        1.5250   72.4890   54.4100 N.pl3  32  ARG32       0.1354
     49  N          5.8400   65.5150   52.5540 N.3    37  PHE37      -0.1241
     50  CA         5.8440   65.9850   53.9510 C.3    37  PHE37       0.1605
     51  C          4.4890   66.6130   54.2480 C.2    37  PHE37       0.2264
     52  O          3.8790   66.3570   55.2720 O.2    37  PHE37      -0.2867
     53  CB         6.9700   67.0000   54.1600 C.3    37  PHE37       0.0534
     54  CG         6.9430   67.7040   55.5010 C.ar   37  PHE37      -0.0203
     55  CD1        7.8100   67.3080   56.5210 C.ar   37  PHE37      -0.0042
     56  CD2        6.0780   68.7450   55.7420 C.ar   37  PHE37      -0.0042
     57  CE1        7.8000   67.9380   57.7640 C.ar   37  PHE37      -0.0003
     58  CE2        6.0880   69.3900   56.9760 C.ar   37  PHE37      -0.0003
     59  CZ         6.9440   68.9680   57.9890 C.ar   37  PHE37      -0.0000
     60  N          1.8400   65.4200   57.0870 N.3    41  ARG41      -0.1245
     61  CA         1.4800   66.3790   58.1270 C.3    41  ARG41       0.1563
     62  C         -0.0050   66.7400   58.1250 C.2    41  ARG41       0.2260
     63  O         -0.5250   67.1710   59.1510 O.2    41  ARG41      -0.2867
     64  CB         2.3260   67.6350   57.9910 C.3    41  ARG41       0.0307
     65  CG         3.7100   67.4560   58.5880 C.3    41  ARG41       0.0489
     66  CD         3.7780   67.8000   60.0720 C.3    41  ARG41       0.2205
     67  NE         3.3760   69.1860   60.2920 N.pl3  41  ARG41      -0.0865
     68  CZ         2.2150   69.5950   60.8230 C.cat  41  ARG41       0.5346
     69  NH1        1.2980   68.7400   61.2620 N.pl3  41  ARG41       0.1354
     70  NH2        1.9810   70.8920   60.9310 N.pl3  41  ARG41       0.1354
     71  N          0.5880   69.7350   64.5490 N.3    46  PHE46      -0.1241
     72  CA         2.0300   69.6130   64.5370 C.3    46  PHE46       0.1605
     73  C          2.5270   68.8480   65.7560 C.2    46  PHE46       0.2264
     74  O          3.3090   67.9140   65.6440 O.2    46  PHE46      -0.2867
     75  CB         2.6650   70.9880   64.4820 C.3    46  PHE46       0.0534
     76  CG         4.1380   70.9510   64.5530 C.ar   46  PHE46      -0.0203
     77  CD1        4.8770   70.6920   63.4100 C.ar   46  PHE46      -0.0042
     78  CD2        4.7930   71.1180   65.7570 C.ar   46  PHE46      -0.0042
     79  CE1        6.2360   70.6360   63.4600 C.ar   46  PHE46      -0.0003
     80  CE2        6.1600   71.0300   65.8360 C.ar   46  PHE46      -0.0003
     81  CZ         6.9050   70.7670   64.6870 C.ar   46  PHE46      -0.0000
     82  N         18.1780   63.6290   60.3890 N.3    73  ILE73      -0.1231
     83  CA        17.8980   64.3110   61.6690 C.3    73  ILE73       0.1692
     84  C         16.4800   63.9360   62.0770 C.2    73  ILE73       0.2592
     85  O         15.5430   63.9890   61.2540 O.2    73  ILE73      -0.2718
     86  CB        18.1800   65.8260   61.5850 C.3    73  ILE73       0.0266
     87  CG1       17.8880   66.5450   62.9150 C.3    73  ILE73       0.0019
     88  CG2       17.4420   66.5160   60.4410 C.3    73  ILE73       0.0020
     89  CD1       18.5760   67.8490   63.1100 C.3    73  ILE73       0.0001
     90  N         16.2800   63.5530   63.3440 N.am   74  ILE74      -0.1966
     91  CA        14.9760   63.1580   63.7900 C.3    74  ILE74       0.1727
     92  C         13.9800   64.3070   63.6490 C.2    74  ILE74       0.2616
     93  O         14.3240   65.4470   63.9180 O.2    74  ILE74      -0.2715
     94  CB        15.0290   62.6850   65.2510 C.3    74  ILE74       0.0290
     95  CG1       13.7410   61.9780   65.6040 C.3    74  ILE74       0.0022
     96  CG2       15.3680   63.8470   66.1500 C.3    74  ILE74       0.0023
     97  CD1       13.4610   60.7130   64.8560 C.3    74  ILE74       0.0001
     98  N         12.7830   63.9840   63.1620 N.am   75  PHE75      -0.1960
     99  CA        11.6760   64.9030   63.1440 C.3    75  PHE75       0.1771
    100  C         11.1310   65.1010   64.5740 C.2    75  PHE75       0.2620
    101  O         10.6600   64.1860   65.2670 O.2    75  PHE75      -0.2715
    102  CB        10.5570   64.5030   62.1630 C.3    75  PHE75       0.0574
    103  CG         9.5210   65.5370   62.0930 C.ar   75  PHE75      -0.0200
    104  CD1        9.7010   66.6200   61.2530 C.ar   75  PHE75      -0.0042
    105  CD2        8.4420   65.5170   62.9530 C.ar   75  PHE75      -0.0042
    106  CE1        8.7720   67.6380   61.2400 C.ar   75  PHE75      -0.0003
    107  CE2        7.5500   66.5460   62.9490 C.ar   75  PHE75      -0.0003
    108  CZ         7.7070   67.5770   62.0850 C.ar   75  PHE75      -0.0000
    109  N         11.2730   66.3240   65.0220 N.am   76  SER76      -0.1936
    110  CA        10.7840   66.7460   66.3390 C.3    76  SER76       0.2055
    111  C         10.7590   68.2770   66.3090 C.2    76  SER76       0.2643
    112  O         10.7290   68.9360   65.2380 O.2    76  SER76      -0.2714
    113  CB        11.7070   66.2180   67.4560 C.3    76  SER76       0.2130
    114  OG        11.0010   66.3270   68.7010 O.3    76  SER76      -0.2179
    115  N         10.7990   68.9160   67.4700 N.am   77  ASP77      -0.1957
    116  CA        10.9310   70.3500   67.4960 C.3    77  ASP77       0.1840
    117  C         11.6410   70.8060   68.7500 C.2    77  ASP77       0.2622
    118  O         11.5970   70.0770   69.7550 O.2    77  ASP77      -0.2715
    119  CB         9.5880   71.0070   67.5220 C.3    77  ASP77       0.1450
    120  CG         9.6710   72.4170   67.1380 C.2    77  ASP77       0.3671
    121  OD1        9.6040   73.3180   68.0330 O.co2  77  ASP77      -0.2456
    122  OD2        9.8510   72.7230   65.9170 O.co2  77  ASP77      -0.2456
    123  N         12.2990   71.9500   68.6910 N.am   78  ILE78      -0.1963
    124  CA        12.9620   72.4370   69.9060 C.3    78  ILE78       0.1727
    125  C         11.9430   72.7760   70.9850 C.2    78  ILE78       0.2616
    126  O         12.2760   72.7390   72.2070 O.2    78  ILE78      -0.2715
    127  CB        13.9310   73.6220   69.6560 C.3    78  ILE78       0.0290
    128  CG1       13.2230   74.9320   69.3520 C.3    78  ILE78       0.0022
    129  CG2       15.0810   73.2650   68.6140 C.3    78  ILE78       0.0023
    130  CD1       14.1120   76.1300   69.2370 C.3    78  ILE78       0.0001
    131  N         10.7140   73.0840   70.6080 N.am   79  LEU79      -0.1977
    132  CA         9.7780   73.5670   71.6230 C.3    79  LEU79       0.1596
    133  C          9.1200   72.4790   72.4460 C.2    79  LEU79       0.2287
    134  O          8.3520   72.7830   73.3710 O.2    79  LEU79      -0.2864
    135  CB         8.7280   74.5040   71.0300 C.3    79  LEU79       0.0297
    136  CG         9.3820   75.7060   70.3470 C.3    79  LEU79       0.0022
    137  CD1        8.3560   76.4810   69.5420 C.3    79  LEU79       0.0001
    138  CD2       10.1090   76.5760   71.3340 C.3    79  LEU79       0.0001
    139  N          0.6970   75.5720   67.4020 N.3    91  MET91      -0.1245
    140  CA         1.2050   75.9670   66.1050 C.3    91  MET91       0.1570
    141  C          0.0230   76.6480   65.4100 C.2    91  MET91       0.2261
    142  O         -1.0690   76.0920   65.3110 O.2    91  MET91      -0.2867
    143  CB         1.7500   74.7510   65.3270 C.3    91  MET91       0.0387
    144  CG         2.8650   75.0290   64.3130 C.3    91  MET91       0.0595
    145  SD         4.3790   75.8690   64.9060 S.3    91  MET91      -0.1393
    146  CE         5.0470   74.7950   66.1620 C.3    91  MET91       0.0692
    147  N          1.5610   81.7270   60.9780 N.3    95  LYS95      -0.1231
    148  CA         2.1960   82.5700   61.9970 C.3    95  LYS95       0.1693
    149  C          3.3240   81.8390   62.7370 C.2    95  LYS95       0.2593
    150  O          4.3210   82.4680   63.0850 O.2    95  LYS95      -0.2718
    151  CB         1.1540   83.0660   63.0080 C.3    95  LYS95       0.0285
    152  CG         0.2540   84.2040   62.4850 C.3    95  LYS95       0.0035
    153  CD         0.7770   85.5960   62.9150 C.3    95  LYS95       0.0206
    154  CE         0.1310   86.7500   62.1140 C.3    95  LYS95       0.1093
    155  NZ        -0.0450   87.9900   62.9440 N.3    95  LYS95      -0.1314
    156  N          3.1610   80.5320   62.9780 N.am   96  GLY96      -0.1943
    157  CA         4.1710   79.7220   63.6500 C.3    96  GLY96       0.1998
    158  C          3.8320   79.4370   65.1130 C.2    96  GLY96       0.2480
    159  O          2.6980   79.5080   65.5290 O.2    96  GLY96      -0.2729
    160  N          4.8340   79.1050   65.9110 N.am   97  PRO97      -0.2726
    161  CA         4.5680   78.6590   67.2850 C.3    97  PRO97       0.1402
    162  C          4.1530   79.8040   68.1640 C.2    97  PRO97       0.2269
    163  O          4.6020   80.9530   67.9910 O.2    97  PRO97      -0.2865
    164  CB         5.8950   78.0650   67.7390 C.3    97  PRO97       0.0296
    165  CG         6.9480   78.6680   66.8380 C.3    97  PRO97       0.0237
    166  CD         6.2620   79.1470   65.5910 C.3    97  PRO97       0.0939
    167  N         18.6460   66.3760   68.6640 N.3   145  PHE145     -0.1241
    168  CA        18.7950   67.8160   68.8100 C.3   145  PHE145      0.1605
    169  C         17.9350   68.3970   69.8890 C.2   145  PHE145      0.2264
    170  O         16.9960   67.7800   70.3530 O.2   145  PHE145     -0.2867
    171  CB        18.5220   68.5240   67.4650 C.3   145  PHE145      0.0534
    172  CG        17.0740   68.6170   67.1250 C.ar  145  PHE145     -0.0203
    173  CD1       16.3080   69.6540   67.5840 C.ar  145  PHE145     -0.0042
    174  CD2       16.4650   67.5940   66.4180 C.ar  145  PHE145     -0.0042
    175  CE1       14.9250   69.7170   67.3080 C.ar  145  PHE145     -0.0003
    176  CE2       15.0910   67.6480   66.1550 C.ar  145  PHE145     -0.0003
    177  CZ        14.3370   68.7160   66.5810 C.ar  145  PHE145     -0.0000
    178  N         11.6490   82.0380   73.4180 N.3   155  TYR155     -0.1241
    179  CA        10.2890   81.6020   73.0970 C.3   155  TYR155      0.1605
    180  C          9.3770   81.6470   74.2810 C.2   155  TYR155      0.2264
    181  O          8.2190   82.0300   74.1770 O.2   155  TYR155     -0.2867
    182  CB        10.3050   80.1840   72.4900 C.3   155  TYR155      0.0534
    183  CG        10.6920   80.2420   71.0530 C.ar  155  TYR155     -0.0201
    184  CD1       11.9590   79.9040   70.6680 C.ar  155  TYR155     -0.0009
    185  CD2        9.7860   80.6460   70.0740 C.ar  155  TYR155     -0.0009
    186  CE1       12.3610   79.9720   69.3280 C.ar  155  TYR155      0.0417
    187  CE2       10.1780   80.7170   68.7540 C.ar  155  TYR155      0.0417
    188  CZ        11.4470   80.3890   68.3970 C.ar  155  TYR155      0.1957
    189  OH        11.8730   80.4690   67.1040 O.3   155  TYR155     -0.2866
    190  N          8.0780   83.7690   68.0570 N.3   161  GLY161     -0.1225
    191  CA         9.0850   84.5300   67.3200 C.3   161  GLY161      0.1811
    192  C          9.0580   86.0300   67.6020 C.2   161  GLY161      0.2280
    193  O          8.0590   86.5920   68.0850 O.2   161  GLY161     -0.2866
    194  N         20.7230   73.9690   68.8670 N.3   208  PHE208     -0.1241
    195  CA        20.3830   75.1320   68.0720 C.3   208  PHE208      0.1605
    196  C         20.2580   76.3840   68.9440 C.2   208  PHE208      0.2264
    197  O         19.2930   76.5380   69.7160 O.2   208  PHE208     -0.2867
    198  CB        19.0430   74.8850   67.4100 C.3   208  PHE208      0.0534
    199  CG        19.0870   73.8810   66.2640 C.ar  208  PHE208     -0.0203
    200  CD1       18.8040   72.5740   66.4770 C.ar  208  PHE208     -0.0042
    201  CD2       19.2970   74.2880   64.9490 C.ar  208  PHE208     -0.0042
    202  CE1       18.7760   71.6420   65.4500 C.ar  208  PHE208     -0.0003
    203  CE2       19.2800   73.3850   63.9250 C.ar  208  PHE208     -0.0003
    204  CZ        19.0330   72.0710   64.1230 C.ar  208  PHE208     -0.0000
    205  N         19.5030   79.4660   67.8780 N.3   210  SER210     -0.1202
    206  CA        18.9370   80.2170   66.7380 C.3   210  SER210      0.2020
    207  C         18.8310   81.7010   66.9510 C.2   210  SER210      0.2618
    208  O         18.7360   82.4390   65.9810 O.2   210  SER210     -0.2717
    209  CB        17.5350   79.6970   66.4760 C.3   210  SER210      0.2103
    210  OG        17.5800   78.3010   66.3850 O.3   210  SER210     -0.2182
    211  N         18.7370   82.1220   68.2180 N.am  211  HIS211     -0.1975
    212  CA        18.5200   83.4990   68.5930 C.3   211  HIS211      0.1656
    213  C         19.7720   84.1280   69.2000 C.2   211  HIS211      0.2291
    214  O         19.7100   85.1720   69.8180 O.2   211  HIS211     -0.2864
    215  CB        17.2910   83.5540   69.4890 C.3   211  HIS211      0.0771
    216  CG        16.0230   83.2400   68.7500 C.ar  211  HIS211      0.0820
    217  ND1       14.7800   83.4100   69.3000 N.ar  211  HIS211     -0.2267
    218  CD2       15.8100   82.7330   67.5060 C.ar  211  HIS211      0.1154
    219  CE1       13.8540   83.1260   68.3960 C.ar  211  HIS211      0.1986
    220  NE2       14.4530   82.6930   67.3040 N.ar  211  HIS211     -0.2212
    221  N         25.2050   75.2280   66.7620 N.3   252  PHE252     -0.1241
    222  CA        24.8630   76.1440   65.6520 C.3   252  PHE252      0.1605
    223  C         24.2710   77.3900   66.2640 C.2   252  PHE252      0.2264
    224  O         23.1670   77.3450   66.7240 O.2   252  PHE252     -0.2867
    225  CB        23.8720   75.4970   64.7060 C.3   252  PHE252      0.0534
    226  CG        23.4210   76.4040   63.5720 C.ar  252  PHE252     -0.0203
    227  CD1       24.3100   77.2330   62.9510 C.ar  252  PHE252     -0.0042
    228  CD2       22.1160   76.4390   63.1720 C.ar  252  PHE252     -0.0042
    229  CE1       23.9160   78.0540   61.8980 C.ar  252  PHE252     -0.0003
    230  CE2       21.7060   77.2920   62.1340 C.ar  252  PHE252     -0.0003
    231  CZ        22.6130   78.0660   61.5000 C.ar  252  PHE252     -0.0000
    232  N         23.0840   80.7850   65.0850 N.3   254  LYS254     -0.1245
    233  CA        22.7580   81.5780   63.9090 C.3   254  LYS254      0.1561
    234  C         23.0440   83.0360   64.1960 C.2   254  LYS254      0.2260
    235  O         22.6920   83.5500   65.2630 O.2   254  LYS254     -0.2867
    236  CB        21.2900   81.3770   63.5490 C.3   254  LYS254      0.0271
    237  CG        20.8910   82.0000   62.1890 C.3   254  LYS254      0.0035
    238  CD        19.4510   82.3520   62.1390 C.3   254  LYS254      0.0206
    239  CE        19.0720   83.0150   60.7900 C.3   254  LYS254      0.1093
    240  NZ        19.0970   84.5020   60.9290 N.3   254  LYS254     -0.1314
    241  N         21.1150   77.8760   56.9970 N.3   330  HIS330     -0.1241
    242  CA        19.8770   77.8820   57.7560 C.3   330  HIS330      0.1621
    243  C         18.9490   76.8710   57.1240 C.2   330  HIS330      0.2264
    244  O         19.3120   76.2270   56.1670 O.2   330  HIS330     -0.2867
    245  CB        19.2080   79.2740   57.8230 C.3   330  HIS330      0.0745
    246  CG        18.4050   79.5010   59.0810 C.ar  330  HIS330      0.0817
    247  ND1       17.1850   80.1460   59.0840 N.ar  330  HIS330     -0.2268
    248  CD2       18.6480   79.1530   60.3710 C.ar  330  HIS330      0.1154
    249  CE1       16.7070   80.1810   60.3180 C.ar  330  HIS330      0.1986
    250  NE2       17.5820   79.6020   61.1230 N.ar  330  HIS330     -0.2212
@<TRIPOS>BOND
     1    41    40    2
     2    40    39    1
     3    49    50    1
     4    37    36    2
     5    39    42    1
     6    39    38    1
     7    50    53    1
     8    50    51    1
     9    23    22    2
    10    42    43    1
    11    53    54    1
    12    51    52    2
    13    48    46    1
    14    36    38   am
    15    36    35    1
    16    45    46    2
    17    45    44    1
    18    24    21    1
    19    24    25    1
    20    21    22    1
    21    21    20    1
    22    22    29   am
    23    46    47    1
    24    43    44    1
    25    54    56   ar
    26    54    55   ar
    27    27    26    2
    28    34    35    1
    29    34    31   am
    30    12    11    2
    31    56    58   ar
    32    26    25    1
    33    26    28   am
    34   244   243    2
    35     4     3    2
    36    20    11   am
    37    29    30    1
    38    30    31    1
    39    30    33    1
    40    11    10    1
    41    55    57   ar
    42    31    32    2
    43     1     2    1
    44    58    59   ar
    45   241   242    1
    46    60    61    1
    47   243   242    1
    48     3     2    1
    49     3     9   am
    50    13    10    1
    51    13    14    1
    52    10     9    1
    53   242   245    1
    54    57    59   ar
    55   245   246    1
    56     2     5    1
    57    64    61    1
    58    64    65    1
    59    62    61    1
    60    62    63    2
    61    65    66    1
    62     5     6    1
    63    14    15    2
    64   246   247   ar
    65   246   248   ar
    66   247   249   ar
    67     8     7    1
    68     6     7    1
    69    66    67    1
    70    15    16    1
    71    67    68    2
    72   249   250   ar
    73   248   250   ar
    74    82    83    1
    75    88    86    1
    76    16    17    2
    77   239   240    1
    78   239   238    1
    79    68    70    1
    80    68    69    1
    81    17    19    1
    82    17    18    1
    83   147   148    1
    84   106   104   ar
    85   106   108   ar
    86   104   103   ar
    87    85    84    2
    88   231   229   ar
    89   231   230   ar
    90    86    83    1
    91    86    87    1
    92    83    84    1
    93   229   227   ar
    94   148   149    1
    95   148   151    1
    96    84    90   am
    97   108   107   ar
    98   103   102    1
    99   103   105   ar
   100   154   153    1
   101   154   155    1
   102   230   228   ar
   103   238   237    1
   104   102    99    1
   105   237   236    1
   106   152   153    1
   107   152   151    1
   108   149   156   am
   109   149   150    2
   110    87    89    1
   111   107   105   ar
   112   227   226   ar
   113   156   157    1
   114    99    98    1
   115    99   100    1
   116    98    92   am
   117   228   226   ar
   118    90    91    1
   119    77    79   ar
   120    77    76   ar
   121    79    81   ar
   122   236   233    1
   123   226   225    1
   124    92    91    1
   125    92    93    2
   126   157   158    1
   127    91    94    1
   128   233   234    1
   129   233   232    1
   130   203   204   ar
   131   203   201   ar
   132   204   202   ar
   133   234   235    2
   134   144   145    1
   135   144   143    1
   136    75    72    1
   137    75    76    1
   138    72    71    1
   139    72    73    1
   140    76    78   ar
   141   100   109   am
   142   100   101    2
   143    81    80   ar
   144   225   222    1
   145    97    95    1
   146   145   146    1
   147   201   199   ar
   148   109   110    1
   149   158   159    2
   150   158   160   am
   151   112   111    2
   152    94    95    1
   153    94    96    1
   154   142   141    2
   155   143   140    1
   156   141   140    1
   157   202   200   ar
   158   166   160    1
   159   166   165    1
   160    74    73    2
   161   222   223    1
   162   222   221    1
   163    78    80   ar
   164   160   161    1
   165   122   120   ar
   166   208   207    2
   167   140   139    1
   168   176   174   ar
   169   176   177   ar
   170   199   200   ar
   171   199   198    1
   172   223   224    2
   173   111   110    1
   174   111   115   am
   175   110   113    1
   176   210   209    1
   177   174   172   ar
   178   209   206    1
   179   177   175   ar
   180   206   207    1
   181   206   205    1
   182   165   164    1
   183   207   211   am
   184   189   188    1
   185   172   171    1
   186   172   173   ar
   187   120   119    1
   188   120   121   ar
   189   161   164    1
   190   161   162    1
   191   220   218   ar
   192   220   219   ar
   193   175   173   ar
   194   191   192    1
   195   191   190    1
   196   198   195    1
   197   113   114    1
   198   171   168    1
   199   115   116    1
   200   116   119    1
   201   116   117    1
   202   218   216   ar
   203   192   193    2
   204   163   162    2
   205   195   194    1
   206   195   196    1
   207   211   212    1
   208   219   217   ar
   209   188   187   ar
   210   188   186   ar
   211   212   213    1
   212   212   215    1
   213   129   127    1
   214   167   168    1
   215   123   117   am
   216   123   124    1
   217   117   118    2
   218   216   217   ar
   219   216   215    1
   220   187   185   ar
   221   168   169    1
   222   196   197    2
   223   213   214    2
   224   130   128    1
   225   186   184   ar
   226   128   127    1
   227   137   136    1
   228   127   124    1
   229   169   170    2
   230   124   125    1
   231   185   183   ar
   232   136   135    1
   233   136   138    1
   234   131   125   am
   235   131   132    1
   236   184   183   ar
   237   125   126    2
   238   135   132    1
   239   183   182    1
   240   132   133    1
   241   133   134    2
   242   182   179    1
   243   179   178    1
   244   179   180    1
   245   181   180    2
