@<TRIPOS>MOLECULE
tmp/1r3sA00.pdb
 232 228 0 0 0
SMALL
GASTEIGER

@<TRIPOS>ATOM
      1  N         19.7370   71.3060   55.4020 N.3    26  MET26      -0.1230
      2  CA        18.7690   71.6620   56.4310 C.3    26  MET26       0.1702
      3  C         17.3990   71.7990   55.7660 C.2    26  MET26       0.2592
      4  O         17.2800   72.2860   54.6310 O.2    26  MET26      -0.2718
      5  CB        19.1890   72.9400   57.1710 C.3    26  MET26       0.0401
      6  CG        20.3140   72.6690   58.1910 C.3    26  MET26       0.0596
      7  SD        21.0150   74.1770   58.9710 S.3    26  MET26      -0.1393
      8  CE        22.0160   74.8320   57.6100 C.3    26  MET26       0.0692
      9  N         16.4020   71.3030   56.4710 N.am   27  ARG27      -0.1966
     10  CA        15.0330   71.1270   55.9860 C.3    27  ARG27       0.1729
     11  C         14.8960   70.2500   54.7270 C.2    27  ARG27       0.2616
     12  O         13.9340   70.3670   53.9660 O.2    27  ARG27      -0.2715
     13  CB        14.3360   72.4850   55.8440 C.3    27  ARG27       0.0348
     14  CG        14.1010   73.1550   57.1350 C.3    27  ARG27       0.0492
     15  CD        13.2140   74.4340   57.0390 C.3    27  ARG27       0.2205
     16  NE        13.2310   75.0820   58.3440 N.pl3  27  ARG27      -0.0865
     17  CZ        12.2850   74.9920   59.2840 C.cat  27  ARG27       0.5346
     18  NH1       11.1510   74.3390   59.0610 N.pl3  27  ARG27       0.1354
     19  NH2       12.4820   75.5990   60.4690 N.pl3  27  ARG27       0.1354
     20  N         15.7950   69.2610   54.5750 N.am   28  GLN28      -0.1963
     21  CA        15.6810   68.3080   53.4830 C.3    28  GLN28       0.1733
     22  C         14.3480   67.5640   53.5370 C.2    28  GLN28       0.2616
     23  O         13.8520   67.1930   52.4640 O.2    28  GLN28      -0.2715
     24  CB        16.8780   67.3510   53.3970 C.3    28  GLN28       0.0408
     25  CG        17.1970   66.5610   54.6870 C.3    28  GLN28       0.0908
     26  CD        18.4790   65.7480   54.5650 C.2    28  GLN28       0.2608
     27  OE1       18.5200   64.5170   54.9270 O.2    28  GLN28      -0.2717
     28  NE2       19.4800   66.3640   53.9930 N.am   28  GLN28      -0.0878
     29  N         13.8050   67.3250   54.7370 N.am   29  ALA29      -0.1963
     30  CA        12.4040   66.9440   54.8800 C.3    29  ALA29       0.1728
     31  C         11.6440   68.2790   55.0480 C.2    29  ALA29       0.2617
     32  O         11.6690   68.9190   56.1070 O.2    29  ALA29      -0.2715
     33  CB        12.1430   66.0440   56.0590 C.3    29  ALA29       0.0334
     34  N         10.9410   68.6650   54.0020 N.am   30  GLY30      -0.1940
     35  CA        10.3020   69.9650   53.9930 C.3    30  GLY30       0.2014
     36  C          9.2950   70.1270   52.8750 C.2    30  GLY30       0.2638
     37  O          9.1980   69.2850   51.9650 O.2    30  GLY30      -0.2714
     38  N          8.5780   71.2480   52.9300 N.am   31  ARG31      -0.1977
     39  CA         7.4350   71.5220   52.0560 C.3    31  ARG31       0.1597
     40  C          7.7630   71.5560   50.5720 C.2    31  ARG31       0.2287
     41  O          6.8760   71.3040   49.7440 O.2    31  ARG31      -0.2864
     42  CB         6.7780   72.8400   52.4670 C.3    31  ARG31       0.0334
     43  CG         6.0410   72.7490   53.7680 C.3    31  ARG31       0.0492
     44  CD         5.5930   74.0980   54.3000 C.3    31  ARG31       0.2205
     45  NE         6.6700   74.7690   55.0070 N.pl3  31  ARG31      -0.0865
     46  CZ         6.6850   76.0610   55.3260 C.cat  31  ARG31       0.5346
     47  NH1        5.6750   76.8600   55.0090 N.pl3  31  ARG31       0.1354
     48  NH2        7.7320   76.5500   55.9670 N.pl3  31  ARG31       0.1354
     49  N          6.1080   65.4220   51.0180 N.3    36  PHE36      -0.1241
     50  CA         6.0940   65.9220   52.3960 C.3    36  PHE36       0.1605
     51  C          4.7200   66.5420   52.6680 C.2    36  PHE36       0.2264
     52  O          4.0820   66.2720   53.6810 O.2    36  PHE36      -0.2867
     53  CB         7.2150   66.9530   52.5960 C.3    36  PHE36       0.0534
     54  CG         7.2260   67.6180   53.9430 C.ar   36  PHE36      -0.0203
     55  CD1        8.1510   67.2570   54.9120 C.ar   36  PHE36      -0.0042
     56  CD2        6.3670   68.6690   54.2140 C.ar   36  PHE36      -0.0042
     57  CE1        8.1800   67.8620   56.1520 C.ar   36  PHE36      -0.0003
     58  CE2        6.3930   69.2950   55.4430 C.ar   36  PHE36      -0.0003
     59  CZ         7.2980   68.9100   56.4160 C.ar   36  PHE36      -0.0000
     60  N          1.9900   65.2680   55.4320 N.3    40  ARG40      -0.1245
     61  CA         1.6140   66.2190   56.4710 C.3    40  ARG40       0.1563
     62  C          0.1290   66.5540   56.4640 C.2    40  ARG40       0.2260
     63  O         -0.4340   66.8490   57.5200 O.2    40  ARG40      -0.2867
     64  CB         2.4270   67.4900   56.3270 C.3    40  ARG40       0.0307
     65  CG         3.8520   67.2960   56.8030 C.3    40  ARG40       0.0489
     66  CD         4.0540   67.4940   58.2730 C.3    40  ARG40       0.2205
     67  NE         3.6760   68.8590   58.6260 N.pl3  40  ARG40      -0.0865
     68  CZ         2.5610   69.2020   59.2490 C.cat  40  ARG40       0.5346
     69  NH1        1.6950   68.2890   59.6780 N.pl3  40  ARG40       0.1354
     70  NH2        2.3130   70.4830   59.4640 N.pl3  40  ARG40       0.1354
     71  N          1.0490   69.8720   62.8030 N.3    45  PHE45      -0.1241
     72  CA         2.4970   69.6650   62.8050 C.3    45  PHE45       0.1605
     73  C          2.9670   68.9200   64.0360 C.2    45  PHE45       0.2264
     74  O          3.7380   67.9740   63.9330 O.2    45  PHE45      -0.2867
     75  CB         3.2250   71.0050   62.7140 C.3    45  PHE45       0.0534
     76  CG         4.7080   70.9060   62.8870 C.ar   45  PHE45      -0.0203
     77  CD1        5.5250   70.6290   61.8050 C.ar   45  PHE45      -0.0042
     78  CD2        5.2990   71.1190   64.1330 C.ar   45  PHE45      -0.0042
     79  CE1        6.9010   70.5420   61.9640 C.ar   45  PHE45      -0.0003
     80  CE2        6.6780   71.0290   64.2930 C.ar   45  PHE45      -0.0003
     81  CZ         7.4790   70.7380   63.2110 C.ar   45  PHE45      -0.0000
     82  N         18.2820   63.5510   58.7560 N.3    72  ILE72      -0.1231
     83  CA        18.0180   64.2430   60.0300 C.3    72  ILE72       0.1692
     84  C         16.5970   63.9080   60.4520 C.2    72  ILE72       0.2592
     85  O         15.6990   63.9430   59.6340 O.2    72  ILE72      -0.2718
     86  CB        18.2960   65.7570   59.9390 C.3    72  ILE72       0.0266
     87  CG1       18.0110   66.4320   61.2950 C.3    72  ILE72       0.0019
     88  CG2       17.5610   66.4130   58.8000 C.3    72  ILE72       0.0020
     89  CD1       18.6270   67.8200   61.4290 C.3    72  ILE72       0.0001
     90  N         16.4080   63.5490   61.7090 N.am   73  ILE73      -0.1966
     91  CA        15.0870   63.1290   62.1690 C.3    73  ILE73       0.1727
     92  C         14.0820   64.2730   61.9980 C.2    73  ILE73       0.2616
     93  O         14.4100   65.4250   62.2780 O.2    73  ILE73      -0.2715
     94  CB        15.1040   62.6390   63.6270 C.3    73  ILE73       0.0290
     95  CG1       13.7860   61.9750   63.9690 C.3    73  ILE73       0.0022
     96  CG2       15.4270   63.7680   64.5980 C.3    73  ILE73       0.0023
     97  CD1       13.5480   60.6160   63.3340 C.3    73  ILE73       0.0001
     98  N         12.8890   63.9290   61.5100 N.am   74  PHE74      -0.1960
     99  CA        11.8020   64.8850   61.4330 C.3    74  PHE74       0.1771
    100  C         11.2770   65.1030   62.8650 C.2    74  PHE74       0.2620
    101  O         10.7970   64.1840   63.5060 O.2    74  PHE74      -0.2715
    102  CB        10.6650   64.4310   60.5550 C.3    74  PHE74       0.0574
    103  CG         9.5680   65.4630   60.4990 C.ar   74  PHE74      -0.0200
    104  CD1        9.6810   66.5330   59.6430 C.ar   74  PHE74      -0.0042
    105  CD2        8.4940   65.3780   61.3630 C.ar   74  PHE74      -0.0042
    106  CE1        8.6810   67.5240   59.6020 C.ar   74  PHE74      -0.0003
    107  CE2        7.5290   66.3620   61.3570 C.ar   74  PHE74      -0.0003
    108  CZ         7.6280   67.4180   60.4470 C.ar   74  PHE74      -0.0000
    109  N         11.3590   66.3560   63.2990 N.am   75  SER75      -0.1936
    110  CA        10.8300   66.8140   64.5630 C.3    75  SER75       0.2055
    111  C         10.7870   68.3560   64.5380 C.2    75  SER75       0.2644
    112  O         10.8950   68.9900   63.4740 O.2    75  SER75      -0.2714
    113  CB        11.6680   66.2890   65.7180 C.3    75  SER75       0.2130
    114  OG        10.9780   66.3990   66.9240 O.3    75  SER75      -0.2179
    115  N         10.6720   68.9590   65.7110 N.am   76  GLY76      -0.1939
    116  CA        10.6880   70.4110   65.8260 C.3    76  GLY76       0.2014
    117  C         11.5730   70.8560   66.9460 C.2    76  GLY76       0.2639
    118  O         11.7550   70.0900   67.8760 O.2    76  GLY76      -0.2714
    119  N         12.1720   72.0560   66.8730 N.am   77  ILE77      -0.1963
    120  CA        12.8960   72.5410   68.0540 C.3    77  ILE77       0.1727
    121  C         11.9280   72.9170   69.1700 C.2    77  ILE77       0.2616
    122  O         12.2960   72.8570   70.3500 O.2    77  ILE77      -0.2715
    123  CB        13.8900   73.7030   67.7860 C.3    77  ILE77       0.0290
    124  CG1       13.1570   74.9720   67.4150 C.3    77  ILE77       0.0022
    125  CG2       15.0070   73.2910   66.7080 C.3    77  ILE77       0.0023
    126  CD1       14.0920   76.1860   67.3750 C.3    77  ILE77       0.0001
    127  N         10.6720   73.2540   68.8220 N.am   78  LEU78      -0.1977
    128  CA         9.7360   73.6920   69.8320 C.3    78  LEU78       0.1596
    129  C          9.1080   72.5920   70.7060 C.2    78  LEU78       0.2287
    130  O          8.4120   72.8770   71.6630 O.2    78  LEU78      -0.2864
    131  CB         8.6660   74.6100   69.2310 C.3    78  LEU78       0.0297
    132  CG         9.2350   75.8840   68.6220 C.3    78  LEU78       0.0022
    133  CD1        8.1110   76.7200   68.0050 C.3    78  LEU78       0.0001
    134  CD2       10.0040   76.7000   69.5970 C.3    78  LEU78       0.0001
    135  N          0.7820   75.6150   65.6110 N.3    90  MET90      -0.1245
    136  CA         1.2990   75.9710   64.2990 C.3    90  MET90       0.1570
    137  C          0.1340   76.6700   63.5780 C.2    90  MET90       0.2261
    138  O         -0.8640   76.0450   63.2230 O.2    90  MET90      -0.2867
    139  CB         1.8300   74.7250   63.5760 C.3    90  MET90       0.0387
    140  CG         2.9280   74.9790   62.5250 C.3    90  MET90       0.0595
    141  SD         4.4680   75.8410   63.0350 S.3    90  MET90      -0.1393
    142  CE         4.9780   74.9220   64.4670 C.3    90  MET90       0.0692
    143  N          2.8910   80.2710   61.1550 N.3    95  GLY95      -0.1210
    144  CA         4.0170   79.6630   61.8460 C.3    95  GLY95       0.1940
    145  C          3.7690   79.5030   63.3400 C.2    95  GLY95       0.2453
    146  O          2.6620   79.7330   63.8280 O.2    95  GLY95      -0.2732
    147  N          4.8050   79.1170   64.0810 N.am   96  PRO96      -0.2728
    148  CA         4.6050   78.7260   65.4870 C.3    96  PRO96       0.1401
    149  C          4.1930   79.8800   66.3750 C.2    96  PRO96       0.2269
    150  O          4.6740   80.9970   66.2060 O.2    96  PRO96      -0.2865
    151  CB         5.9740   78.1920   65.9180 C.3    96  PRO96       0.0296
    152  CG         6.9710   78.6870   64.8820 C.3    96  PRO96       0.0237
    153  CD         6.2110   79.0380   63.6530 C.3    96  PRO96       0.0939
    154  N         18.6610   66.4010   66.9130 N.3   144  PHE144     -0.1241
    155  CA        18.8060   67.8650   67.0420 C.3   144  PHE144      0.1605
    156  C         17.9220   68.4620   68.1280 C.2   144  PHE144      0.2264
    157  O         16.9090   67.8900   68.5470 O.2   144  PHE144     -0.2867
    158  CB        18.5620   68.5560   65.6930 C.3   144  PHE144      0.0534
    159  CG        17.1190   68.6950   65.3480 C.ar  144  PHE144     -0.0203
    160  CD1       16.4300   69.8140   65.6950 C.ar  144  PHE144     -0.0042
    161  CD2       16.4590   67.6640   64.6900 C.ar  144  PHE144     -0.0042
    162  CE1       15.0390   69.9130   65.4100 C.ar  144  PHE144     -0.0003
    163  CE2       15.0810   67.7730   64.3990 C.ar  144  PHE144     -0.0003
    164  CZ        14.3980   68.8870   64.7680 C.ar  144  PHE144     -0.0000
    165  N         11.7330   82.1280   71.6150 N.3   154  TYR154     -0.1241
    166  CA        10.3820   81.6860   71.2680 C.3   154  TYR154      0.1605
    167  C          9.4590   81.7470   72.4750 C.2   154  TYR154      0.2264
    168  O          8.2730   82.1470   72.3490 O.2   154  TYR154     -0.2867
    169  CB        10.4030   80.2590   70.6990 C.3   154  TYR154      0.0534
    170  CG        10.7690   80.2230   69.2390 C.ar  154  TYR154     -0.0201
    171  CD1       12.0490   79.8760   68.8620 C.ar  154  TYR154     -0.0009
    172  CD2        9.8650   80.5930   68.2310 C.ar  154  TYR154     -0.0009
    173  CE1       12.4300   79.8420   67.5420 C.ar  154  TYR154      0.0417
    174  CE2       10.2460   80.5520   66.8910 C.ar  154  TYR154      0.0417
    175  CZ        11.5360   80.1840   66.5650 C.ar  154  TYR154      0.1957
    176  OH        11.9720   80.1520   65.2670 O.3   154  TYR154     -0.2866
    177  N          8.2320   84.0950   66.2510 N.3   160  GLY160     -0.1225
    178  CA         9.3010   84.8410   65.5870 C.3   160  GLY160      0.1811
    179  C          9.2260   86.3460   65.7940 C.2   160  GLY160      0.2280
    180  O          8.1810   86.9160   66.1290 O.2   160  GLY160     -0.2866
    181  N         20.7510   73.9960   67.1870 N.3   207  PHE207     -0.1241
    182  CA        20.3970   75.1520   66.3810 C.3   207  PHE207      0.1605
    183  C         20.2610   76.4240   67.2520 C.2   207  PHE207      0.2264
    184  O         19.2940   76.6030   68.0060 O.2   207  PHE207     -0.2867
    185  CB        19.0380   74.8710   65.6950 C.3   207  PHE207      0.0534
    186  CG        19.1030   73.9190   64.5620 C.ar  207  PHE207     -0.0203
    187  CD1       18.9960   72.5460   64.7560 C.ar  207  PHE207     -0.0042
    188  CD2       19.2110   74.3950   63.2480 C.ar  207  PHE207     -0.0042
    189  CE1       18.9920   71.6710   63.7100 C.ar  207  PHE207     -0.0003
    190  CE2       19.2090   73.5020   62.1480 C.ar  207  PHE207     -0.0003
    191  CZ        19.1150   72.1140   62.4030 C.ar  207  PHE207     -0.0000
    192  N         19.5220   79.3880   66.1840 N.3   209  SER209     -0.1202
    193  CA        19.0040   80.1080   65.0060 C.3   209  SER209      0.2020
    194  C         18.8800   81.6140   65.1710 C.2   209  SER209      0.2618
    195  O         18.8710   82.3400   64.1720 O.2   209  SER209     -0.2717
    196  CB        17.6480   79.5320   64.5740 C.3   209  SER209      0.2103
    197  OG        17.7540   78.1260   64.4660 O.3   209  SER209     -0.2182
    198  N         18.8040   82.0590   66.4150 N.am  210  HIS210     -0.1975
    199  CA        18.5460   83.4480   66.7560 C.3   210  HIS210      0.1656
    200  C         19.7750   84.1510   67.3480 C.2   210  HIS210      0.2291
    201  O         19.6670   85.2250   67.9350 O.2   210  HIS210     -0.2864
    202  CB        17.3250   83.5000   67.6600 C.3   210  HIS210      0.0771
    203  CG        16.0490   83.1890   66.9330 C.ar  210  HIS210      0.0820
    204  ND1       14.8060   83.3760   67.4930 N.ar  210  HIS210     -0.2267
    205  CD2       15.8280   82.6960   65.6870 C.ar  210  HIS210      0.1154
    206  CE1       13.8770   83.0500   66.6130 C.ar  210  HIS210      0.1986
    207  NE2       14.4670   82.6230   65.5120 N.ar  210  HIS210     -0.2212
    208  N         25.2880   75.3380   65.2720 N.3   251  PHE251     -0.1241
    209  CA        24.9560   76.2400   64.1380 C.3   251  PHE251      0.1605
    210  C         24.3650   77.5150   64.7090 C.2   251  PHE251      0.2264
    211  O         23.2280   77.5120   65.1800 O.2   251  PHE251     -0.2867
    212  CB        23.9550   75.5520   63.2020 C.3   251  PHE251      0.0534
    213  CG        23.4040   76.4490   62.0840 C.ar  251  PHE251     -0.0203
    214  CD1       24.2280   77.1550   61.2790 C.ar  251  PHE251     -0.0042
    215  CD2       22.0500   76.5860   61.9180 C.ar  251  PHE251     -0.0042
    216  CE1       23.7040   77.9780   60.2400 C.ar  251  PHE251     -0.0003
    217  CE2       21.5410   77.4380   60.8970 C.ar  251  PHE251     -0.0003
    218  CZ        22.3950   78.0840   60.0740 C.ar  251  PHE251     -0.0000
    219  N         21.2370   77.8380   55.5390 N.3   329  HIS329     -0.1226
    220  CA        20.0360   77.7850   56.3550 C.3   329  HIS329      0.1752
    221  C         19.1040   76.7610   55.6680 C.2   329  HIS329      0.2596
    222  O         19.4990   76.1460   54.7110 O.2   329  HIS329     -0.2718
    223  CB        19.3760   79.1740   56.4710 C.3   329  HIS329      0.0759
    224  CG        18.4810   79.3490   57.6670 C.ar  329  HIS329      0.0818
    225  ND1       18.4050   78.4680   58.7310 N.ar  329  HIS329     -0.2268
    226  CD2       17.6160   80.3480   57.9490 C.ar  329  HIS329      0.1154
    227  CE1       17.5040   78.9170   59.5960 C.ar  329  HIS329      0.1986
    228  NE2       17.0310   80.0660   59.1560 N.ar  329  HIS329     -0.2212
    229  N         17.9070   76.5520   56.1730 N.am  330  GLY330     -0.1957
    230  CA        17.0590   75.5120   55.6300 C.3   330  GLY330      0.1869
    231  C         16.4780   75.8610   54.2660 C.2   330  GLY330      0.2309
    232  O         16.3390   77.0300   53.9220 O.2   330  GLY330     -0.2863
@<TRIPOS>BOND
     1    41    40    2
     2    40    39    1
     3    49    50    1
     4    37    36    2
     5    39    42    1
     6    39    38    1
     7    50    53    1
     8    50    51    1
     9    23    22    2
    10    42    43    1
    11    53    54    1
    12    51    52    2
    13    36    38   am
    14    36    35    1
    15    24    21    1
    16    24    25    1
    17    21    22    1
    18    21    20    1
    19    22    29   am
    20    43    44    1
    21   232   231    2
    22    54    56   ar
    23    54    55   ar
    24    12    11    2
    25    35    34    1
    26    28    26   am
    27    34    31   am
    28    56    58   ar
    29   231   230    1
    30    44    45    1
    31    26    25    1
    32    26    27    2
    33    20    11   am
    34     4     3    2
    35   222   221    2
    36    11    10    1
    37    29    30    1
    38    30    31    1
    39    30    33    1
    40    55    57   ar
    41    45    46    2
    42    47    46    1
    43    31    32    2
    44    46    48    1
    45     1     2    1
    46    60    61    1
    47    58    59   ar
    48   219   220    1
    49   230   229    1
    50   221   229   am
    51   221   220    1
    52     3     2    1
    53     3     9   am
    54    13    10    1
    55    13    14    1
    56    10     9    1
    57    57    59   ar
    58    64    61    1
    59    64    65    1
    60   220   223    1
    61     2     5    1
    62    62    61    1
    63    62    63    2
    64   223   224    1
    65    65    66    1
    66    15    14    1
    67    15    16    1
    68     5     6    1
    69     8     7    1
    70   224   226   ar
    71   224   225   ar
    72   226   228   ar
    73     6     7    1
    74    66    67    1
    75    16    17    2
    76    67    68    2
    77   225   227   ar
    78    82    83    1
    79    88    86    1
    80    18    17    1
    81   228   227   ar
    82    68    70    1
    83    68    69    1
    84    17    19    1
    85   106   104   ar
    86   106   108   ar
    87    85    84    2
    88   104   103   ar
    89    86    83    1
    90    86    87    1
    91    83    84    1
    92   218   216   ar
    93   218   217   ar
    94   216   214   ar
    95   108   107   ar
    96    84    90   am
    97   103   102    1
    98   103   105   ar
    99   102    99    1
   100   217   215   ar
   101   143   144    1
   102   214   213   ar
   103    87    89    1
   104   107   105   ar
   105    99    98    1
   106    99   100    1
   107    98    92   am
   108    90    91    1
   109    77    79   ar
   110    77    76   ar
   111   144   145    1
   112   215   213   ar
   113    79    81   ar
   114    92    91    1
   115    92    93    2
   116   213   212    1
   117   190   191   ar
   118   190   188   ar
   119    91    94    1
   120   191   189   ar
   121   140   141    1
   122   140   139    1
   123    75    72    1
   124    75    76    1
   125    71    72    1
   126    72    73    1
   127   100   109   am
   128   100   101    2
   129    76    78   ar
   130   141   142    1
   131   212   209    1
   132    81    80   ar
   133   138   137    2
   134   188   186   ar
   135   109   110    1
   136    97    95    1
   137   145   146    2
   138   145   147   am
   139   112   111    2
   140   139   136    1
   141   137   136    1
   142    94    95    1
   143    94    96    1
   144   153   147    1
   145   153   152    1
   146   189   187   ar
   147    74    73    2
   148   147   148    1
   149    78    80   ar
   150   209   210    1
   151   209   208    1
   152   195   194    2
   153   136   135    1
   154   163   161   ar
   155   163   164   ar
   156   197   196    1
   157   111   110    1
   158   111   115   am
   159   186   187   ar
   160   186   185    1
   161   110   113    1
   162   196   193    1
   163   161   159   ar
   164   210   211    2
   165   164   162   ar
   166   152   151    1
   167   193   194    1
   168   193   192    1
   169   194   198   am
   170   176   175    1
   171   159   158    1
   172   159   160   ar
   173   162   160   ar
   174   148   151    1
   175   148   149    1
   176   207   205   ar
   177   207   206   ar
   178   178   179    1
   179   178   177    1
   180   205   203   ar
   181   158   155    1
   182   185   182    1
   183   115   116    1
   184   113   114    1
   185   179   180    2
   186   116   117    1
   187   150   149    2
   188   182   181    1
   189   182   183    1
   190   198   199    1
   191   175   174   ar
   192   175   173   ar
   193   206   204   ar
   194   125   123    1
   195   199   200    1
   196   199   202    1
   197   119   117   am
   198   119   120    1
   199   174   172   ar
   200   154   155    1
   201   203   204   ar
   202   203   202    1
   203   117   118    2
   204   155   156    1
   205   183   184    2
   206   200   201    2
   207   126   124    1
   208   124   123    1
   209   173   171   ar
   210   123   120    1
   211   133   132    1
   212   120   121    1
   213   156   157    2
   214   172   170   ar
   215   132   131    1
   216   132   134    1
   217   127   121   am
   218   127   128    1
   219   171   170   ar
   220   121   122    2
   221   131   128    1
   222   170   169    1
   223   128   129    1
   224   169   166    1
   225   129   130    2
   226   166   165    1
   227   166   167    1
   228   168   167    2
