@<TRIPOS>MOLECULE
tmp/1r3tA00.pdb
 250 247 0 0 0
SMALL
GASTEIGER

@<TRIPOS>ATOM
      1  N         19.6960   71.0710   55.8740 N.3    26  MET26      -0.1230
      2  CA        18.7290   71.3820   56.9240 C.3    26  MET26       0.1702
      3  C         17.3450   71.5180   56.2750 C.2    26  MET26       0.2592
      4  O         17.2600   72.0280   55.1500 O.2    26  MET26      -0.2718
      5  CB        19.1520   72.6480   57.6690 C.3    26  MET26       0.0401
      6  CG        20.3300   72.4300   58.6190 C.3    26  MET26       0.0596
      7  SD        20.9610   73.9520   59.3850 S.3    26  MET26      -0.1393
      8  CE        21.9990   74.5190   58.0780 C.3    26  MET26       0.0692
      9  N         16.3340   71.0450   56.9870 N.am   27  ARG27      -0.1966
     10  CA        14.9600   70.8960   56.4810 C.3    27  ARG27       0.1729
     11  C         14.8270   70.0100   55.2350 C.2    27  ARG27       0.2616
     12  O         13.8540   70.1640   54.4620 O.2    27  ARG27      -0.2715
     13  CB        14.3160   72.2670   56.2700 C.3    27  ARG27       0.0348
     14  CG        14.2030   73.0660   57.5270 C.3    27  ARG27       0.0492
     15  CD        13.5690   74.4590   57.3450 C.3    27  ARG27       0.2205
     16  NE        14.0000   75.3670   58.4080 N.pl3  27  ARG27      -0.0865
     17  CZ        13.5710   76.6130   58.5730 C.cat  27  ARG27       0.5346
     18  NH1       12.7010   77.1440   57.7310 N.pl3  27  ARG27       0.1354
     19  NH2       14.0230   77.3430   59.5920 N.pl3  27  ARG27       0.1354
     20  N         15.7170   69.0150   55.0690 N.am   28  GLN28      -0.1963
     21  CA        15.6080   68.0570   53.9490 C.3    28  GLN28       0.1733
     22  C         14.2970   67.3240   53.9740 C.2    28  GLN28       0.2616
     23  O         13.7850   66.9380   52.9310 O.2    28  GLN28      -0.2715
     24  CB        16.7820   67.0760   53.8780 C.3    28  GLN28       0.0408
     25  CG        17.1410   66.3610   55.1920 C.3    28  GLN28       0.0908
     26  CD        18.4510   65.5910   55.0020 C.2    28  GLN28       0.2608
     27  OE1       19.4000   66.1290   54.4420 O.2    28  GLN28      -0.2717
     28  NE2       18.4830   64.3370   55.4400 N.am   28  GLN28      -0.0878
     29  N         13.7530   67.0980   55.1640 N.am   29  ALA29      -0.1963
     30  CA        12.3640   66.7120   55.2530 C.3    29  ALA29       0.1728
     31  C         11.5850   68.0020   55.4530 C.2    29  ALA29       0.2617
     32  O         11.5940   68.6070   56.5390 O.2    29  ALA29      -0.2715
     33  CB        12.1400   65.7650   56.4030 C.3    29  ALA29       0.0334
     34  N         10.8840   68.4230   54.4160 N.am   30  GLY30      -0.1940
     35  CA        10.2060   69.7070   54.4470 C.3    30  GLY30       0.2014
     36  C          9.2190   69.8610   53.3090 C.2    30  GLY30       0.2638
     37  O          9.1060   69.0220   52.4210 O.2    30  GLY30      -0.2714
     38  N          8.5160   70.9820   53.3600 N.am   31  ARG31      -0.1977
     39  CA         7.3750   71.2450   52.5040 C.3    31  ARG31       0.1597
     40  C          7.7320   71.3920   51.0430 C.2    31  ARG31       0.2287
     41  O          6.8370   71.3340   50.2090 O.2    31  ARG31      -0.2864
     42  CB         6.6560   72.5100   52.9540 C.3    31  ARG31       0.0334
     43  CG         5.9600   72.3920   54.2830 C.3    31  ARG31       0.0492
     44  CD         5.4930   73.7620   54.8280 C.3    31  ARG31       0.2205
     45  NE         6.6270   74.5120   55.3690 N.pl3  31  ARG31      -0.0865
     46  CZ         6.6500   75.8280   55.6160 C.cat  31  ARG31       0.5346
     47  NH1        5.5840   76.6030   55.4020 N.pl3  31  ARG31       0.1354
     48  NH2        7.7600   76.3690   56.1060 N.pl3  31  ARG31       0.1354
     49  N          5.9820   65.2680   51.3450 N.3    36  PHE36      -0.1241
     50  CA         5.9490   65.7480   52.7320 C.3    36  PHE36       0.1605
     51  C          4.5960   66.3830   52.9750 C.2    36  PHE36       0.2264
     52  O          3.9350   66.1270   53.9630 O.2    36  PHE36      -0.2867
     53  CB         7.1030   66.7430   52.9680 C.3    36  PHE36       0.0534
     54  CG         7.0880   67.4060   54.3210 C.ar   36  PHE36      -0.0203
     55  CD1        7.9630   67.0140   55.3300 C.ar   36  PHE36      -0.0042
     56  CD2        6.2400   68.4530   54.5680 C.ar   36  PHE36      -0.0042
     57  CE1        7.9370   67.6140   56.5350 C.ar   36  PHE36      -0.0003
     58  CE2        6.2260   69.0590   55.7830 C.ar   36  PHE36      -0.0003
     59  CZ         7.0650   68.6520   56.7610 C.ar   36  PHE36      -0.0000
     60  N          1.9390   65.0710   55.8460 N.3    40  ARG40      -0.1245
     61  CA         1.5680   65.9960   56.9210 C.3    40  ARG40       0.1563
     62  C          0.1010   66.4180   56.8930 C.2    40  ARG40       0.2260
     63  O         -0.4200   66.8620   57.9030 O.2    40  ARG40      -0.2867
     64  CB         2.4430   67.2320   56.8730 C.3    40  ARG40       0.0307
     65  CG         3.8450   66.9460   57.3760 C.3    40  ARG40       0.0489
     66  CD         4.0510   67.2160   58.8310 C.3    40  ARG40       0.2205
     67  NE         3.6730   68.5870   59.1550 N.pl3  40  ARG40      -0.0865
     68  CZ         2.5380   68.9490   59.7390 C.cat  40  ARG40       0.5346
     69  NH1        1.6400   68.0540   60.1090 N.pl3  40  ARG40       0.1354
     70  NH2        2.3030   70.2270   59.9650 N.pl3  40  ARG40       0.1354
     71  N          0.9780   69.5510   63.0970 N.3    45  PHE45      -0.1227
     72  CA         2.4420   69.3820   63.1860 C.3    45  PHE45       0.1736
     73  C          2.8940   68.6840   64.4550 C.2    45  PHE45       0.2595
     74  O          3.6680   67.7390   64.3960 O.2    45  PHE45      -0.2718
     75  CB         3.1680   70.7110   63.0980 C.3    45  PHE45       0.0547
     76  CG         4.6370   70.6190   63.4000 C.ar   45  PHE45      -0.0202
     77  CD1        5.5200   70.1690   62.4450 C.ar   45  PHE45      -0.0042
     78  CD2        5.1390   71.0000   64.6490 C.ar   45  PHE45      -0.0042
     79  CE1        6.8810   70.0800   62.7270 C.ar   45  PHE45      -0.0003
     80  CE2        6.4840   70.9140   64.9280 C.ar   45  PHE45      -0.0003
     81  CZ         7.3590   70.4610   63.9700 C.ar   45  PHE45      -0.0000
     82  N          2.4500   69.1780   65.6090 N.am   46  PHE46      -0.1976
     83  CA         2.8550   68.5610   66.8710 C.3    46  PHE46       0.1639
     84  C          2.2700   67.1520   67.0520 C.2    46  PHE46       0.2290
     85  O          2.8670   66.3360   67.7330 O.2    46  PHE46      -0.2864
     86  CB         2.6370   69.5300   68.0650 C.3    46  PHE46       0.0560
     87  CG         3.5570   70.7270   68.0290 C.ar   46  PHE46      -0.0200
     88  CD1        3.0770   71.9860   67.6840 C.ar   46  PHE46      -0.0042
     89  CD2        4.9240   70.5830   68.2860 C.ar   46  PHE46      -0.0042
     90  CE1        3.9370   73.0870   67.6090 C.ar   46  PHE46      -0.0003
     91  CE2        5.7930   71.6850   68.2200 C.ar   46  PHE46      -0.0003
     92  CZ         5.2920   72.9400   67.8810 C.ar   46  PHE46      -0.0000
     93  N         18.2410   63.3770   59.2630 N.3    72  ILE72      -0.1231
     94  CA        17.9570   64.0820   60.5040 C.3    72  ILE72       0.1692
     95  C         16.5170   63.7380   60.9270 C.2    72  ILE72       0.2592
     96  O         15.6070   63.8020   60.1130 O.2    72  ILE72      -0.2718
     97  CB        18.2210   65.6200   60.3740 C.3    72  ILE72       0.0266
     98  CG1       18.0070   66.3330   61.7380 C.3    72  ILE72       0.0019
     99  CG2       17.3830   66.2590   59.2970 C.3    72  ILE72       0.0020
    100  CD1       18.6560   67.6400   61.8400 C.3    72  ILE72       0.0001
    101  N         16.3200   63.3580   62.1800 N.am   73  ILE73      -0.1966
    102  CA        15.0050   62.9190   62.6180 C.3    73  ILE73       0.1727
    103  C         14.0150   64.0630   62.4640 C.2    73  ILE73       0.2616
    104  O         14.3680   65.2180   62.7070 O.2    73  ILE73      -0.2715
    105  CB        15.0330   62.4440   64.0510 C.3    73  ILE73       0.0290
    106  CG1       13.7040   61.7650   64.3880 C.3    73  ILE73       0.0022
    107  CG2       15.3890   63.6100   64.9800 C.3    73  ILE73       0.0023
    108  CD1       13.4120   60.4040   63.6870 C.3    73  ILE73       0.0001
    109  N         12.8110   63.7410   61.9930 N.am   74  PHE74      -0.1960
    110  CA        11.6990   64.6880   61.9330 C.3    74  PHE74       0.1771
    111  C         11.1570   64.9070   63.3360 C.2    74  PHE74       0.2620
    112  O         10.7000   63.9530   63.9860 O.2    74  PHE74      -0.2715
    113  CB        10.5710   64.2590   61.0070 C.3    74  PHE74       0.0574
    114  CG         9.5000   65.3030   60.9180 C.ar   74  PHE74      -0.0200
    115  CD1        9.6300   66.3900   60.0710 C.ar   74  PHE74      -0.0042
    116  CD2        8.4060   65.2110   61.7340 C.ar   74  PHE74      -0.0042
    117  CE1        8.6320   67.3520   60.0230 C.ar   74  PHE74      -0.0003
    118  CE2        7.4530   66.1850   61.7300 C.ar   74  PHE74      -0.0003
    119  CZ         7.5490   67.2160   60.8410 C.ar   74  PHE74      -0.0000
    120  N         11.2520   66.1490   63.8080 N.am   75  SER75      -0.1936
    121  CA        10.6900   66.5590   65.1010 C.3    75  SER75       0.2055
    122  C         10.6120   68.0920   65.1470 C.2    75  SER75       0.2644
    123  O         10.8130   68.7500   64.1130 O.2    75  SER75      -0.2714
    124  CB        11.5210   66.0130   66.2530 C.3    75  SER75       0.2130
    125  OG        10.8160   66.1150   67.4820 O.3    75  SER75      -0.2179
    126  N         10.3430   68.6590   66.3260 N.am   76  GLY76      -0.1939
    127  CA        10.3550   70.1060   66.4810 C.3    76  GLY76       0.2014
    128  C         11.4080   70.6010   67.4440 C.2    76  GLY76       0.2639
    129  O         11.8130   69.8080   68.2740 O.2    76  GLY76      -0.2714
    130  N         11.8740   71.8550   67.3460 N.am   77  ILE77      -0.1963
    131  CA        12.6440   72.3650   68.4720 C.3    77  ILE77       0.1727
    132  C         11.7230   72.7510   69.6350 C.2    77  ILE77       0.2616
    133  O         12.1800   72.7320   70.7680 O.2    77  ILE77      -0.2715
    134  CB        13.6820   73.5020   68.1880 C.3    77  ILE77       0.0290
    135  CG1       13.0160   74.8180   67.8750 C.3    77  ILE77       0.0022
    136  CG2       14.8160   73.0580   67.1500 C.3    77  ILE77       0.0023
    137  CD1       13.9690   75.9730   67.9370 C.3    77  ILE77       0.0001
    138  N         10.4470   73.0870   69.3920 N.am   78  LEU78      -0.1977
    139  CA         9.6060   73.5780   70.5040 C.3    78  LEU78       0.1596
    140  C          9.0340   72.4530   71.3850 C.2    78  LEU78       0.2287
    141  O          8.3910   72.7010   72.4180 O.2    78  LEU78      -0.2864
    142  CB         8.4960   74.4900   69.9480 C.3    78  LEU78       0.0297
    143  CG         9.1460   75.7490   69.3140 C.3    78  LEU78       0.0022
    144  CD1        8.0780   76.6010   68.6170 C.3    78  LEU78       0.0001
    145  CD2        9.9090   76.5610   70.3600 C.3    78  LEU78       0.0001
    146  N         -0.3110   75.8820   66.7650 N.3    90  MET90      -0.1245
    147  CA         0.3350   76.0470   65.4560 C.3    90  MET90       0.1570
    148  C         -0.6740   76.7460   64.5460 C.2    90  MET90       0.2261
    149  O         -1.7560   76.2220   64.2650 O.2    90  MET90      -0.2867
    150  CB         0.8180   74.7020   64.8910 C.3    90  MET90       0.0387
    151  CG         1.5240   74.7480   63.5080 C.3    90  MET90       0.0595
    152  SD         3.2460   75.4140   63.3890 S.3    90  MET90      -0.1393
    153  CE         4.0350   74.7670   64.8330 C.3    90  MET90       0.0692
    154  N          2.5240   80.4750   61.9520 N.3    95  GLY95      -0.1210
    155  CA         3.5610   79.7020   62.6280 C.3    95  GLY95       0.1940
    156  C          3.2440   79.3290   64.0730 C.2    95  GLY95       0.2453
    157  O          2.1290   79.5160   64.5350 O.2    95  GLY95      -0.2732
    158  N          4.2270   78.7920   64.7910 N.am   96  PRO96      -0.2728
    159  CA         4.0370   78.4330   66.1990 C.3    96  PRO96       0.1401
    160  C          3.8490   79.6520   67.0720 C.2    96  PRO96       0.2269
    161  O          4.3820   80.7180   66.7920 O.2    96  PRO96      -0.2865
    162  CB         5.3450   77.7370   66.5720 C.3    96  PRO96       0.0296
    163  CG         6.3390   78.2630   65.5940 C.3    96  PRO96       0.0237
    164  CD         5.5910   78.4850   64.3190 C.3    96  PRO96       0.0939
    165  N         18.5500   66.2450   67.3120 N.3   144  PHE144     -0.1241
    166  CA        18.6910   67.7040   67.4700 C.3   144  PHE144      0.1605
    167  C         17.8290   68.2900   68.6090 C.2   144  PHE144      0.2264
    168  O         16.8410   67.7110   69.0640 O.2   144  PHE144     -0.2867
    169  CB        18.4220   68.3970   66.1190 C.3   144  PHE144      0.0534
    170  CG        16.9960   68.4880   65.7970 C.ar  144  PHE144     -0.0203
    171  CD1       16.2660   69.6100   66.1390 C.ar  144  PHE144     -0.0042
    172  CD2       16.3310   67.4260   65.2220 C.ar  144  PHE144     -0.0042
    173  CE1       14.8960   69.6740   65.8920 C.ar  144  PHE144     -0.0003
    174  CE2       14.9480   67.5130   64.9630 C.ar  144  PHE144     -0.0003
    175  CZ        14.2460   68.6160   65.2980 C.ar  144  PHE144     -0.0000
    176  N         11.6720   81.9420   72.2430 N.3   154  TYR154     -0.1241
    177  CA        10.3120   81.5230   71.8700 C.3   154  TYR154      0.1605
    178  C          9.4140   81.5570   73.0910 C.2   154  TYR154      0.2264
    179  O          8.2520   81.9570   72.9830 O.2   154  TYR154     -0.2867
    180  CB        10.3100   80.1450   71.2540 C.3   154  TYR154      0.0534
    181  CG        10.7210   80.1430   69.8180 C.ar  154  TYR154     -0.0201
    182  CD1       11.9850   79.7620   69.4580 C.ar  154  TYR154     -0.0009
    183  CD2        9.8090   80.4990   68.8180 C.ar  154  TYR154     -0.0009
    184  CE1       12.3820   79.7380   68.1420 C.ar  154  TYR154      0.0417
    185  CE2       10.2060   80.4920   67.4920 C.ar  154  TYR154      0.0417
    186  CZ        11.4870   80.1050   67.1770 C.ar  154  TYR154      0.1957
    187  OH        11.8940   80.0790   65.8570 O.3   154  TYR154     -0.2866
    188  N         20.6550   73.8730   67.7090 N.3   207  PHE207     -0.1241
    189  CA        20.3230   75.0100   66.8800 C.3   207  PHE207      0.1605
    190  C         20.2020   76.2300   67.7660 C.2   207  PHE207      0.2264
    191  O         19.1890   76.3800   68.4860 O.2   207  PHE207     -0.2867
    192  CB        18.9770   74.7720   66.1980 C.3   207  PHE207      0.0534
    193  CG        19.0050   73.7880   65.0300 C.ar  207  PHE207     -0.0203
    194  CD1       18.9080   72.4490   65.2610 C.ar  207  PHE207     -0.0042
    195  CD2       19.1140   74.2420   63.6970 C.ar  207  PHE207     -0.0042
    196  CE1       18.8910   71.5230   64.2490 C.ar  207  PHE207     -0.0003
    197  CE2       19.0800   73.3450   62.6550 C.ar  207  PHE207     -0.0003
    198  CZ        18.9960   71.9640   62.9220 C.ar  207  PHE207     -0.0000
    199  N         19.4580   79.2320   66.6850 N.3   209  SER209     -0.1202
    200  CA        18.9240   79.9680   65.5310 C.3   209  SER209      0.2020
    201  C         18.8280   81.4590   65.7270 C.2   209  SER209      0.2618
    202  O         18.8540   82.2020   64.7520 O.2   209  SER209     -0.2717
    203  CB        17.5640   79.3940   65.1920 C.3   209  SER209      0.2103
    204  OG        17.7550   78.0130   64.9070 O.3   209  SER209     -0.2182
    205  N         18.7200   81.9090   66.9790 N.am  210  HIS210     -0.1975
    206  CA        18.5240   83.3270   67.2830 C.3   210  HIS210      0.1656
    207  C         19.7560   83.9820   67.8800 C.2   210  HIS210      0.2291
    208  O         19.6760   85.0230   68.5670 O.2   210  HIS210     -0.2864
    209  CB        17.2790   83.5040   68.1380 C.3   210  HIS210      0.0771
    210  CG        16.0290   83.2260   67.3660 C.ar  210  HIS210      0.0820
    211  ND1       15.1040   82.2820   67.7330 N.ar  210  HIS210     -0.2267
    212  CD2       15.5800   83.7450   66.2020 C.ar  210  HIS210      0.1154
    213  CE1       14.1380   82.2250   66.8300 C.ar  210  HIS210      0.1986
    214  NE2       14.4060   83.0930   65.8840 N.ar  210  HIS210     -0.2212
    215  N         25.2220   75.1160   65.6970 N.3   251  PHE251     -0.1241
    216  CA        24.8510   76.0250   64.5900 C.3   251  PHE251      0.1605
    217  C         24.2560   77.2990   65.1820 C.2   251  PHE251      0.2264
    218  O         23.1030   77.2950   65.6310 O.2   251  PHE251     -0.2867
    219  CB        23.8430   75.3330   63.6560 C.3   251  PHE251      0.0534
    220  CG        23.3680   76.2010   62.5110 C.ar  251  PHE251     -0.0203
    221  CD1       24.2540   76.9910   61.8450 C.ar  251  PHE251     -0.0042
    222  CD2       22.0480   76.2280   62.1470 C.ar  251  PHE251     -0.0042
    223  CE1       23.8340   77.8140   60.8110 C.ar  251  PHE251     -0.0003
    224  CE2       21.6230   77.0500   61.0920 C.ar  251  PHE251     -0.0003
    225  CZ        22.5250   77.8180   60.4440 C.ar  251  PHE251     -0.0000
    226  N         21.2740   77.5620   55.9760 N.3   329  HIS329     -0.1241
    227  CA        20.0300   77.5170   56.7560 C.3   329  HIS329      0.1621
    228  C         19.1320   76.4590   56.0800 C.2   329  HIS329      0.2264
    229  O         19.5820   75.7540   55.2050 O.2   329  HIS329     -0.2867
    230  CB        19.3370   78.8770   56.7560 C.3   329  HIS329      0.0745
    231  CG        18.4200   79.0890   57.9320 C.ar  329  HIS329      0.0817
    232  ND1       18.3770   78.2290   59.0100 N.ar  329  HIS329     -0.2268
    233  CD2       17.4870   80.0330   58.1740 C.ar  329  HIS329      0.1154
    234  CE1       17.4650   78.6550   59.8670 C.ar  329  HIS329      0.1986
    235  NE2       16.9150   79.7510   59.3840 N.ar  329  HIS329     -0.2212
    236  N         16.1210   74.5390   53.9410 N.3   331  LEU331     -0.1245
    237  CA        15.3680   74.6710   52.6710 C.3   331  LEU331      0.1561
    238  C         14.0310   75.3900   52.8490 C.2   331  LEU331      0.2260
    239  O         13.3380   75.2030   53.8520 O.2   331  LEU331     -0.2867
    240  CB        15.1370   73.2720   52.1400 C.3   331  LEU331      0.0270
    241  CG        16.3850   72.6030   51.5450 C.3   331  LEU331      0.0019
    242  CD1       16.2530   71.0750   51.5290 C.3   331  LEU331      0.0001
    243  CD2       16.7190   73.1620   50.1490 C.3   331  LEU331      0.0001
    244  N         10.0430   76.4410   51.5380 N.3   333  PRO333     -0.2116
    245  CA         8.9720   75.6220   50.9740 C.3   333  PRO333      0.1372
    246  C          8.7470   75.6950   49.4840 C.2   333  PRO333      0.2244
    247  O          8.1540   74.7730   48.9600 O.2   333  PRO333     -0.2868
    248  CB         7.7250   76.0630   51.7590 C.3   333  PRO333      0.0268
    249  CG         8.2250   76.7450   52.9030 C.3   333  PRO333      0.0207
    250  CD         9.5160   77.3920   52.5330 C.3   333  PRO333      0.0892
@<TRIPOS>BOND
     1   247   246    2
     2   246   245    1
     3   243   241    1
     4    41    40    2
     5   245   244    1
     6   245   248    1
     7    40    39    1
     8    49    50    1
     9   242   241    1
    10   244   250    1
    11   241   240    1
    12   248   249    1
    13   240   237    1
    14    37    36    2
    15    39    42    1
    16    39    38    1
    17   250   249    1
    18   237   238    1
    19   237   236    1
    20    50    53    1
    21    50    51    1
    22   238   239    2
    23    23    22    2
    24    42    43    1
    25    53    54    1
    26    51    52    2
    27    36    38   am
    28    36    35    1
    29    24    21    1
    30    24    25    1
    31    21    22    1
    32    21    20    1
    33    22    29   am
    34    43    44    1
    35    54    56   ar
    36    54    55   ar
    37    34    35    1
    38    34    31   am
    39    27    26    2
    40    12    11    2
    41    56    58   ar
    42    44    45    1
    43    26    25    1
    44    26    28   am
    45    20    11   am
    46     4     3    2
    47    29    30    1
    48   229   228    2
    49    11    10    1
    50    30    31    1
    51    30    33    1
    52    55    57   ar
    53    45    46    2
    54    47    46    1
    55    31    32    2
    56    46    48    1
    57    58    59   ar
    58    60    61    1
    59     1     2    1
    60   226   227    1
    61   228   227    1
    62    13    10    1
    63    13    14    1
    64     3     2    1
    65     3     9   am
    66    10     9    1
    67    57    59   ar
    68   230   227    1
    69   230   231    1
    70    64    61    1
    71    64    65    1
    72    62    61    1
    73    62    63    2
    74     2     5    1
    75    15    14    1
    76    15    16    1
    77    65    66    1
    78     5     6    1
    79    18    17    1
    80   231   233   ar
    81   231   232   ar
    82     8     7    1
    83   233   235   ar
    84    16    17    2
    85    17    19    1
    86     6     7    1
    87    66    67    1
    88   232   234   ar
    89    67    68    2
    90    93    94    1
    91    99    97    1
    92   235   234   ar
    93    68    70    1
    94    68    69    1
    95   117   115   ar
    96   117   119   ar
    97   115   114   ar
    98    96    95    2
    99    97    94    1
   100    97    98    1
   101   225   223   ar
   102   225   224   ar
   103    94    95    1
   104   223   221   ar
   105   119   118   ar
   106   114   113    1
   107   114   116   ar
   108    95   101   am
   109   113   110    1
   110   224   222   ar
   111   118   116   ar
   112    98   100    1
   113   221   220   ar
   114   110   109    1
   115   110   111    1
   116   154   155    1
   117   109   103   am
   118   222   220   ar
   119   101   102    1
   120    77    79   ar
   121    77    76   ar
   122   103   102    1
   123   103   104    2
   124   220   219    1
   125   102   105    1
   126   155   156    1
   127   197   198   ar
   128   197   195   ar
   129    79    81   ar
   130   198   196   ar
   131    71    72    1
   132    75    72    1
   133    75    76    1
   134    72    73    1
   135   111   120   am
   136   111   112    2
   137   152   151    1
   138   152   153    1
   139    76    78   ar
   140   151   150    1
   141   219   216    1
   142   108   106    1
   143   195   193   ar
   144   120   121    1
   145    81    80   ar
   146   105   106    1
   147   105   107    1
   148   156   157    2
   149   156   158   am
   150   123   122    2
   151   196   194   ar
   152   149   148    2
   153   164   158    1
   154   164   163    1
   155    74    73    2
   156    73    82   am
   157   148   147    1
   158   216   217    1
   159   216   215    1
   160    78    80   ar
   161   202   201    2
   162   158   159    1
   163   150   147    1
   164   204   203    1
   165   174   172   ar
   166   174   175   ar
   167   193   194   ar
   168   193   192    1
   169   121   122    1
   170   121   124    1
   171   122   126   am
   172   217   218    2
   173   203   200    1
   174   172   170   ar
   175   175   173   ar
   176   147   146    1
   177   200   201    1
   178   200   199    1
   179   163   162    1
   180    82    83    1
   181   201   205   am
   182   170   169    1
   183   170   171   ar
   184   187   186    1
   185   214   212   ar
   186   214   213   ar
   187   173   171   ar
   188   169   166    1
   189   192   189    1
   190   159   162    1
   191   159   160    1
   192   212   210   ar
   193   124   125    1
   194   126   127    1
   195   127   128    1
   196   161   160    2
   197   213   211   ar
   198    83    84    1
   199    83    86    1
   200   189   188    1
   201   189   190    1
   202   205   206    1
   203    84    85    2
   204   136   134    1
   205   186   185   ar
   206   186   184   ar
   207   206   207    1
   208   206   209    1
   209   165   166    1
   210   130   128   am
   211   130   131    1
   212   210   211   ar
   213   210   209    1
   214   128   129    2
   215   166   167    1
   216   185   183   ar
   217    90    88   ar
   218    90    92   ar
   219    88    87   ar
   220   190   191    2
   221   135   137    1
   222   135   134    1
   223   207   208    2
   224    92    91   ar
   225    87    86    1
   226    87    89   ar
   227   184   182   ar
   228   134   131    1
   229    91    89   ar
   230   131   132    1
   231   167   168    2
   232   144   143    1
   233   183   181   ar
   234   143   142    1
   235   143   145    1
   236   138   132   am
   237   138   139    1
   238   182   181   ar
   239   132   133    2
   240   181   180    1
   241   142   139    1
   242   139   140    1
   243   180   177    1
   244   140   141    2
   245   177   176    1
   246   177   178    1
   247   179   178    2
