@<TRIPOS>MOLECULE
tmp/1r4lA02.pdb
 268 263 0 0 0
SMALL
GASTEIGER

@<TRIPOS>ATOM
      1  N         33.8250   -2.2350   38.2650 N.3   109  TYR109     -0.1241
      2  CA        35.0970   -1.8440   37.6950 C.3   109  TYR109      0.1605
      3  C         35.6970   -0.6620   38.4470 C.2   109  TYR109      0.2264
      4  O         36.7320   -0.7920   39.0950 O.2   109  TYR109     -0.2867
      5  CB        34.9010   -1.4900   36.2160 C.3   109  TYR109      0.0534
      6  CG        36.1760   -1.2080   35.4640 C.ar  109  TYR109     -0.0201
      7  CD1       36.5740    0.0890   35.1940 C.ar  109  TYR109     -0.0009
      8  CD2       36.9870   -2.2490   35.0280 C.ar  109  TYR109     -0.0009
      9  CE1       37.7360    0.3440   34.5120 C.ar  109  TYR109      0.0417
     10  CE2       38.1620   -2.0000   34.3420 C.ar  109  TYR109      0.0417
     11  CZ        38.5270   -0.7000   34.0870 C.ar  109  TYR109      0.1957
     12  OH        39.6830   -0.4490   33.3950 O.3   109  TYR109     -0.2866
     13  N         41.6040    0.1080   41.3070 N.3   126  LEU126     -0.1231
     14  CA        42.3740   -0.1280   40.0880 C.3   126  LEU126      0.1693
     15  C         43.1280    1.1420   39.6930 C.2   126  LEU126      0.2591
     16  O         44.1250    1.0760   38.9880 O.2   126  LEU126     -0.2718
     17  CB        41.4720   -0.5790   38.9330 C.3   126  LEU126      0.0284
     18  CG        42.1750   -0.7830   37.5790 C.3   126  LEU126      0.0019
     19  CD1       43.2750   -1.8080   37.7360 C.3   126  LEU126      0.0001
     20  CD2       41.1880   -1.2350   36.5190 C.3   126  LEU126      0.0001
     21  N         42.6530    2.2980   40.1500 N.am  127  GLU127     -0.1979
     22  CA        43.3150    3.5630   39.8360 C.3   127  GLU127      0.1602
     23  C         43.4680    4.4830   41.0520 C.2   127  GLU127      0.2287
     24  O         42.4990    5.0620   41.5370 O.2   127  GLU127     -0.2864
     25  CB        42.5480    4.2870   38.7290 C.3   127  GLU127      0.0415
     26  CG        42.8440    5.7750   38.5760 C.3   127  GLU127      0.1163
     27  CD        44.2460    6.0610   38.0910 C.2   127  GLU127      0.3649
     28  OE1       44.8750    5.1390   37.5200 O.co2 127  GLU127     -0.2457
     29  OE2       44.7130    7.2140   38.2690 O.co2 127  GLU127     -0.2457
     30  N         47.0280   -0.3400   39.1210 N.3   131  ASN131     -0.1240
     31  CA        47.5820    0.3580   37.9680 C.3   131  ASN131      0.1653
     32  C         49.0410    0.7680   38.1280 C.2   131  ASN131      0.2266
     33  O         49.8710    0.3500   37.3310 O.2   131  ASN131     -0.2867
     34  CB        46.7390    1.6000   37.6210 C.3   131  ASN131      0.1155
     35  CG        45.6490    1.3180   36.5720 C.2   131  ASN131      0.2627
     36  OD1       44.8790    2.2180   36.1980 O.2   131  ASN131     -0.2716
     37  ND2       45.5900    0.0730   36.0910 N.am  131  ASN131     -0.0877
     38  N         46.5910   -5.1150   31.2430 N.3   253  TRP253     -0.1241
     39  CA        46.1420   -6.0270   30.1960 C.3   253  TRP253      0.1605
     40  C         47.1890   -6.2960   29.1310 C.2   253  TRP253      0.2264
     41  O         47.1270   -7.3050   28.4180 O.2   253  TRP253     -0.2867
     42  CB        44.8560   -5.4870   29.5480 C.3   253  TRP253      0.0550
     43  CG        43.8050   -5.1800   30.5630 C.ar  253  TRP253      0.0003
     44  CD1       42.8960   -6.0470   31.1090 C.ar  253  TRP253      0.0946
     45  CD2       43.6330   -3.9400   31.2440 C.ar  253  TRP253      0.0152
     46  NE1       42.1730   -5.4190   32.0960 N.ar  253  TRP253     -0.2442
     47  CE2       42.6090   -4.1240   32.1970 C.ar  253  TRP253      0.0810
     48  CE3       44.2470   -2.6890   31.1410 C.ar  253  TRP253      0.0012
     49  CZ2       42.1910   -3.1020   33.0400 C.ar  253  TRP253      0.0191
     50  CZ3       43.8310   -1.6820   31.9690 C.ar  253  TRP253      0.0001
     51  CH2       42.8130   -1.8910   32.9100 C.ar  253  TRP253      0.0015
     52  N         47.5890   -4.1950   26.9100 N.3   255  ARG255     -0.1231
     53  CA        46.9660   -3.5030   25.8050 C.3   255  ARG255      0.1694
     54  C         48.0180   -2.5890   25.2120 C.2   255  ARG255      0.2592
     55  O         48.0680   -2.3980   23.9940 O.2   255  ARG255     -0.2718
     56  CB        45.7790   -2.6870   26.2980 C.3   255  ARG255      0.0321
     57  CG        45.2150   -1.7440   25.2520 C.3   255  ARG255      0.0489
     58  CD        43.8800   -1.1270   25.6290 C.3   255  ARG255      0.2205
     59  NE        43.6360    0.0070   24.7530 N.pl3 255  ARG255     -0.0865
     60  CZ        42.8270    1.0190   25.0320 C.cat 255  ARG255      0.5346
     61  NH1       42.6910    2.0120   24.1680 N.pl3 255  ARG255      0.1354
     62  NH2       42.1570    1.0360   26.1700 N.pl3 255  ARG255      0.1354
     63  N         48.8580   -2.0340   26.0870 N.am  256  PHE256     -0.1976
     64  CA        49.9560   -1.1510   25.6890 C.3   256  PHE256      0.1639
     65  C         51.2690   -1.5340   26.3610 C.2   256  PHE256      0.2290
     66  O         51.3770   -1.4860   27.5870 O.2   256  PHE256     -0.2864
     67  CB        49.6640    0.2910   26.0570 C.3   256  PHE256      0.0560
     68  CG        48.4190    0.8190   25.4610 C.ar  256  PHE256     -0.0200
     69  CD1       47.2640    0.9120   26.2170 C.ar  256  PHE256     -0.0042
     70  CD2       48.3910    1.2200   24.1400 C.ar  256  PHE256     -0.0042
     71  CE1       46.1050    1.3990   25.6710 C.ar  256  PHE256     -0.0003
     72  CE2       47.2320    1.7090   23.5830 C.ar  256  PHE256     -0.0003
     73  CZ        46.0860    1.7980   24.3520 C.ar  256  PHE256     -0.0000
     74  N         37.6640    6.8350   36.8220 N.3   326  CYS326     -0.1221
     75  CA        38.8820    7.5470   36.4520 C.3   326  CYS326      0.1808
     76  C         39.3470    7.4430   35.0150 C.2   326  CYS326      0.2601
     77  O         40.2480    8.1850   34.6010 O.2   326  CYS326     -0.2717
     78  CB        40.0230    7.1480   37.3860 C.3   326  CYS326      0.0970
     79  SG        40.2150    8.2380   38.8420 S.3   326  CYS326     -0.0800
     80  N         38.7340    6.5300   34.2640 N.am  327  HIS327     -0.1962
     81  CA        39.0760    6.3320   32.8620 C.3   327  HIS327      0.1772
     82  C         38.8760    7.6760   32.1660 C.2   327  HIS327      0.2462
     83  O         37.8020    8.2790   32.2550 O.2   327  HIS327     -0.2730
     84  CB        38.1610    5.2780   32.2430 C.3   327  HIS327      0.0785
     85  CG        38.7450    4.6180   31.0360 C.ar  327  HIS327      0.0821
     86  ND1       39.5240    3.4840   31.1120 N.ar  327  HIS327     -0.2267
     87  CD2       38.7180    4.9670   29.7290 C.ar  327  HIS327      0.1154
     88  CE1       39.9540    3.1650   29.9040 C.ar  327  HIS327      0.1986
     89  NE2       39.4790    4.0500   29.0470 N.ar  327  HIS327     -0.2212
     90  N         39.9080    8.1710   31.4760 N.am  328  PRO328     -0.2716
     91  CA        39.8430    9.4560   30.7690 C.3   328  PRO328      0.1536
     92  C         38.7630    9.4580   29.7000 C.2   328  PRO328      0.2599
     93  O         38.7880    8.6560   28.7650 O.2   328  PRO328     -0.2715
     94  CB        41.2360    9.5970   30.1420 C.3   328  PRO328      0.0310
     95  CG        42.0900    8.6800   30.9210 C.3   328  PRO328      0.0237
     96  CD        41.1910    7.5050   31.2240 C.3   328  PRO328      0.0939
     97  N         37.8160   10.3670   29.8170 N.am  329  THR329     -0.1937
     98  CA        36.7730   10.4140   28.8210 C.3   329  THR329      0.2028
     99  C         36.4910   11.8460   28.4230 C.2   329  THR329      0.2642
    100  O         36.5350   12.7280   29.2670 O.2   329  THR329     -0.2714
    101  CB        35.5080    9.7440   29.3560 C.3   329  THR329      0.1808
    102  OG1       34.9950   10.4890   30.4610 O.3   329  THR329     -0.2208
    103  CG2       35.8300    8.3410   29.8250 C.3   329  THR329      0.0379
    104  N         36.2380   12.0870   27.1350 N.am  330  ALA330     -0.1977
    105  CA        35.9370   13.4400   26.6470 C.3   330  ALA330      0.1597
    106  C         34.4390   13.5550   26.5100 C.2   330  ALA330      0.2287
    107  O         33.8570   12.9060   25.6630 O.2   330  ALA330     -0.2864
    108  CB        36.5840   13.6650   25.3100 C.3   330  ALA330      0.0319
    109  N         39.2480   13.1870   33.5710 N.3   342  MET342     -0.1230
    110  CA        40.4670   12.3840   33.5750 C.3   342  MET342      0.1702
    111  C         41.2910   12.5610   34.8510 C.2   342  MET342      0.2592
    112  O         41.6370   13.6820   35.2190 O.2   342  MET342     -0.2718
    113  CB        41.3260   12.7520   32.3550 C.3   342  MET342      0.0401
    114  CG        42.6110   11.9480   32.1970 C.3   342  MET342      0.0596
    115  SD        43.5510   12.4620   30.7520 S.3   342  MET342     -0.1393
    116  CE        45.1920   11.7950   31.1090 C.3   342  MET342      0.0692
    117  N         41.5990   11.4570   35.5290 N.am  343  CYS343     -0.1970
    118  CA        42.4080   11.5340   36.7400 C.3   343  CYS343      0.1712
    119  C         43.8450   11.6220   36.2430 C.2   343  CYS343      0.2296
    120  O         44.6060   10.6540   36.2930 O.2   343  CYS343     -0.2864
    121  CB        42.1810   10.2970   37.6170 C.3   343  CYS343      0.0983
    122  SG        40.4170   10.1080   38.0510 S.3   343  CYS343     -0.0798
    123  N         47.7420   12.2990   35.6090 N.3   345  LYS345     -0.1245
    124  CA        48.9330   12.0180   36.3740 C.3   345  LYS345      0.1561
    125  C         50.0490   12.6410   35.5340 C.2   345  LYS345      0.2260
    126  O         49.8540   12.8980   34.3430 O.2   345  LYS345     -0.2867
    127  CB        49.0650   10.4950   36.5170 C.3   345  LYS345      0.0271
    128  CG        47.7820    9.8760   37.1030 C.3   345  LYS345      0.0035
    129  CD        47.4040    8.5040   36.5240 C.3   345  LYS345      0.0206
    130  CE        48.1570    7.3530   37.1920 C.3   345  LYS345      0.1093
    131  NZ        47.6350    6.0140   36.7770 N.3   345  LYS345     -0.1314
    132  N         52.5410    9.2810   29.4330 N.3   349  ASP349     -0.1225
    133  CA        51.3530    8.5990   28.9800 C.3   349  ASP349      0.1805
    134  C         50.2440    9.6100   29.0840 C.2   349  ASP349      0.2597
    135  O         49.5470    9.8670   28.1150 O.2   349  ASP349     -0.2718
    136  CB        51.0440    7.4070   29.8820 C.3   349  ASP349      0.1424
    137  CG        51.3920    6.0800   29.2310 C.2   349  ASP349      0.3668
    138  OD1       51.3840    5.0370   29.9240 O.co2 349  ASP349     -0.2456
    139  OD2       51.6670    6.0800   28.0150 O.co2 349  ASP349     -0.2456
    140  N         50.0860   10.1980   30.2620 N.am  350  ASP350     -0.1974
    141  CA        49.0370   11.1880   30.4690 C.3   350  ASP350      0.1709
    142  C         49.2890   12.4840   29.7130 C.2   350  ASP350      0.2293
    143  O         48.4190   13.3420   29.6430 O.2   350  ASP350     -0.2864
    144  CB        48.8510   11.4760   31.9600 C.3   350  ASP350      0.1436
    145  CG        48.1940   10.3250   32.6920 C.2   350  ASP350      0.3671
    146  OD1       48.7130    9.1950   32.5970 O.co2 350  ASP350     -0.2456
    147  OD2       47.1630   10.5420   33.3610 O.co2 350  ASP350     -0.2456
    148  N         47.6960   11.1390   26.2310 N.3   353  THR353     -0.1218
    149  CA        46.2610   10.8850   26.3700 C.3   353  THR353      0.1862
    150  C         45.4770   12.1880   26.4160 C.2   353  THR353      0.2287
    151  O         44.2880   12.2300   26.0700 O.2   353  THR353     -0.2866
    152  CB        45.9290   10.0930   27.6330 C.3   353  THR353      0.1770
    153  OG1       46.4590    8.7730   27.5150 O.3   353  THR353     -0.2211
    154  CG2       44.4250   10.0040   27.8150 C.3   353  THR353      0.0375
    155  N         44.8980   13.1990   23.1970 N.3   356  HIS356     -0.1226
    156  CA        43.8910   12.3460   22.6450 C.3   356  HIS356      0.1752
    157  C         42.6030   12.9900   23.0470 C.2   356  HIS356      0.2595
    158  O         41.9900   13.7130   22.2700 O.2   356  HIS356     -0.2718
    159  CB        43.9410   10.9720   23.2570 C.3   356  HIS356      0.0759
    160  CG        42.8980   10.0550   22.7160 C.ar  356  HIS356      0.0818
    161  ND1       43.0500    9.3840   21.5240 N.ar  356  HIS356     -0.2268
    162  CD2       41.6680    9.7310   23.1780 C.ar  356  HIS356      0.1154
    163  CE1       41.9590    8.6800   21.2770 C.ar  356  HIS356      0.1986
    164  NE2       41.1060    8.8750   22.2640 N.ar  356  HIS356     -0.2212
    165  N         42.2040   12.7300   24.2870 N.am  357  GLU357     -0.1979
    166  CA        40.9620   13.2660   24.8260 C.3   357  GLU357      0.1602
    167  C         40.6330   14.6450   24.2730 C.2   357  GLU357      0.2287
    168  O         39.5090   14.8900   23.8660 O.2   357  GLU357     -0.2864
    169  CB        41.0310   13.2990   26.3520 C.3   357  GLU357      0.0415
    170  CG        41.2220   11.9170   26.9540 C.3   357  GLU357      0.1163
    171  CD        40.2460   10.8980   26.3870 C.2   357  GLU357      0.3649
    172  OE1       39.0220   11.1020   26.5060 O.co2 357  GLU357     -0.2457
    173  OE2       40.6990    9.8900   25.8190 O.co2 357  GLU357     -0.2457
    174  N         39.3260   14.5290   20.8390 N.3   360  HIS360     -0.1241
    175  CA        37.9240   14.1700   20.8150 C.3   360  HIS360      0.1621
    176  C         37.1200   15.4470   20.8460 C.2   360  HIS360      0.2264
    177  O         36.2100   15.6480   20.0600 O.2   360  HIS360     -0.2867
    178  CB        37.5620   13.3310   22.0310 C.3   360  HIS360      0.0745
    179  CG        37.6280   11.8640   21.7810 C.ar  360  HIS360      0.0817
    180  ND1       37.2980   11.3080   20.5660 N.ar  360  HIS360     -0.2268
    181  CD2       37.9030   10.8290   22.6060 C.ar  360  HIS360      0.1154
    182  CE1       37.3600    9.9930   20.6520 C.ar  360  HIS360      0.1986
    183  NE2       37.7230    9.6760   21.8800 N.ar  360  HIS360     -0.2212
    184  N         38.5090    8.2950   17.2450 N.3   384  GLU384     -0.1245
    185  CA        39.6740    7.8310   17.9750 C.3   384  GLU384      0.1567
    186  C         40.8770    8.2700   17.1800 C.2   384  GLU384      0.2260
    187  O         41.8000    8.8600   17.7030 O.2   384  GLU384     -0.2867
    188  CB        39.6460    6.3150   18.0940 C.3   384  GLU384      0.0388
    189  CG        38.4030    5.7770   18.8130 C.3   384  GLU384      0.1160
    190  CD        38.2600    6.3610   20.2060 C.2   384  GLU384      0.3649
    191  OE1       39.2060    7.0610   20.6550 O.co2 384  GLU384     -0.2457
    192  OE2       37.2150    6.1140   20.8530 O.co2 384  GLU384     -0.2457
    193  N         45.2090   10.9300   17.9540 N.3   388  GLU388     -0.1245
    194  CA        46.4110   10.1660   17.6850 C.3   388  GLU388      0.1567
    195  C         47.1950   10.7520   16.5250 C.2   388  GLU388      0.2260
    196  O         48.3070   10.3260   16.2410 O.2   388  GLU388     -0.2867
    197  CB        46.0510    8.7150   17.3880 C.3   388  GLU388      0.0388
    198  CG        45.4270    7.9600   18.5640 C.3   388  GLU388      0.1160
    199  CD        46.3210    7.9250   19.7940 C.2   388  GLU388      0.3649
    200  OE1       47.5430    7.6890   19.6490 O.co2 388  GLU388     -0.2457
    201  OE2       45.7960    8.1220   20.9110 O.co2 388  GLU388     -0.2457
    202  N         37.7920   -2.2990   31.3470 N.3   486  PHE486     -0.1227
    203  CA        36.8560   -1.1930   31.1250 C.3   486  PHE486      0.1736
    204  C         36.0210   -1.4080   29.8730 C.2   486  PHE486      0.2595
    205  O         34.9600   -2.0320   29.9350 O.2   486  PHE486     -0.2718
    206  CB        37.6170    0.1270   30.9890 C.3   486  PHE486      0.0547
    207  CG        36.7260    1.3210   30.8590 C.ar  486  PHE486     -0.0202
    208  CD1       35.8820    1.6870   31.8970 C.ar  486  PHE486     -0.0042
    209  CD2       36.7300    2.0750   29.7110 C.ar  486  PHE486     -0.0042
    210  CE1       35.0650    2.7750   31.7950 C.ar  486  PHE486     -0.0003
    211  CE2       35.9150    3.1650   29.5990 C.ar  486  PHE486     -0.0003
    212  CZ        35.0810    3.5160   30.6440 C.ar  486  PHE486     -0.0000
    213  N         36.5100   -0.8700   28.7520 N.am  487  HIS487     -0.1975
    214  CA        35.8850   -1.0020   27.4420 C.3   487  HIS487      0.1656
    215  C         34.8850   -2.1340   27.3940 C.2   487  HIS487      0.2291
    216  O         33.7740   -1.9690   26.9420 O.2   487  HIS487     -0.2864
    217  CB        36.9630   -1.2550   26.4140 C.3   487  HIS487      0.0771
    218  CG        37.9780   -0.1690   26.3580 C.ar  487  HIS487      0.0820
    219  ND1       38.0000    0.7780   25.3550 N.ar  487  HIS487     -0.2267
    220  CD2       38.9400    0.1860   27.2370 C.ar  487  HIS487      0.1154
    221  CE1       38.9280    1.6750   25.6250 C.ar  487  HIS487      0.1986
    222  NE2       39.5120    1.3390   26.7610 N.ar  487  HIS487     -0.2212
    223  N         31.1810    0.3380   25.0210 N.3   492  TYR492     -0.1241
    224  CA        32.3150    0.7860   24.2030 C.3   492  TYR492      0.1605
    225  C         32.9010   -0.2480   23.2310 C.2   492  TYR492      0.2264
    226  O         33.5670   -1.1880   23.6300 O.2   492  TYR492     -0.2867
    227  CB        33.4240    1.3570   25.1120 C.3   492  TYR492      0.0534
    228  CG        32.9360    2.6130   25.7670 C.ar  492  TYR492     -0.0201
    229  CD1       32.5690    3.6910   24.9960 C.ar  492  TYR492     -0.0009
    230  CD2       32.6190    2.6410   27.1040 C.ar  492  TYR492     -0.0009
    231  CE1       31.8850    4.7370   25.5150 C.ar  492  TYR492      0.0417
    232  CE2       31.9240    3.6960   27.6430 C.ar  492  TYR492      0.0417
    233  CZ        31.5500    4.7430   26.8350 C.ar  492  TYR492      0.1957
    234  OH        30.7860    5.7850   27.3250 O.3   492  TYR492     -0.2866
    235  N         37.4970    0.3040   17.1180 N.3   496  ARG496     -0.1231
    236  CA        37.7900    1.6580   16.6460 C.3   496  ARG496      0.1694
    237  C         39.2680    1.9520   16.8400 C.2   496  ARG496      0.2592
    238  O         39.8430    2.7830   16.1330 O.2   496  ARG496     -0.2718
    239  CB        36.9970    2.7210   17.4060 C.3   496  ARG496      0.0321
    240  CG        35.9860    2.1930   18.3730 C.3   496  ARG496      0.0489
    241  CD        36.4590    2.4570   19.7620 C.3   496  ARG496      0.2205
    242  NE        35.9740    3.7140   20.3250 N.pl3 496  ARG496     -0.0865
    243  CZ        34.7610    3.8810   20.8400 C.cat 496  ARG496      0.5346
    244  NH1       33.8980    2.8750   20.8480 N.pl3 496  ARG496      0.1354
    245  NH2       34.4350    5.0310   21.4130 N.pl3 496  ARG496      0.1354
    246  N         39.8740    1.2570   17.8070 N.am  497  TYR497     -0.1976
    247  CA        41.2880    1.4180   18.1230 C.3   497  TYR497      0.1639
    248  C         42.1330    0.7640   17.0710 C.2   497  TYR497      0.2290
    249  O         43.2320    1.2040   16.7850 O.2   497  TYR497     -0.2864
    250  CB        41.5710    0.8150   19.4730 C.3   497  TYR497      0.0560
    251  CG        40.7960    1.5120   20.5520 C.ar  497  TYR497     -0.0198
    252  CD1       41.0670    2.8320   20.8970 C.ar  497  TYR497     -0.0009
    253  CD2       39.7740    0.8620   21.2130 C.ar  497  TYR497     -0.0009
    254  CE1       40.3300    3.4740   21.8770 C.ar  497  TYR497      0.0417
    255  CE2       39.0390    1.4940   22.1930 C.ar  497  TYR497      0.0417
    256  CZ        39.3240    2.7900   22.5220 C.ar  497  TYR497      0.1957
    257  OH        38.6230    3.3450   23.5500 O.3   497  TYR497     -0.2866
    258  N         41.3390    3.0950   14.0160 N.3   500  ARG500     -0.1245
    259  CA        41.9300    4.3800   14.3320 C.3   500  ARG500      0.1563
    260  C         43.4280    4.3530   14.0920 C.2   500  ARG500      0.2260
    261  O         43.9970    5.3180   13.6080 O.2   500  ARG500     -0.2867
    262  CB        41.6900    4.7250   15.7870 C.3   500  ARG500      0.0307
    263  CG        42.8430    5.4610   16.4350 C.3   500  ARG500      0.0489
    264  CD        43.4820    4.6260   17.5290 C.3   500  ARG500      0.2205
    265  NE        43.9030    5.4690   18.6400 N.pl3 500  ARG500     -0.0865
    266  CZ        44.0650    5.0300   19.8820 C.cat 500  ARG500      0.5346
    267  NH1       44.4450    5.8670   20.8400 N.pl3 500  ARG500      0.1354
    268  NH2       43.8410    3.7530   20.1640 N.pl3 500  ARG500      0.1354
@<TRIPOS>BOND
     1   261   260    2
     2   258   259    1
     3   260   259    1
     4   259   262    1
     5   262   263    1
     6   238   237    2
     7   196   195    2
     8   263   264    1
     9   195   194    1
    10   236   237    1
    11   236   235    1
    12   236   239    1
    13   249   248    2
    14   237   246   am
    15   248   247    1
    16   186   187    2
    17   186   185    1
    18   184   185    1
    19   197   194    1
    20   197   198    1
    21   239   240    1
    22   264   265    1
    23   194   193    1
    24   246   247    1
    25   185   188    1
    26   188   189    1
    27   247   250    1
    28   240   241    1
    29   198   199    1
    30   265   266    2
    31   189   190    1
    32   250   251    1
    33   200   199   ar
    34   241   242    1
    35   199   201   ar
    36   266   268    1
    37   266   267    1
    38   177   176    2
    39   190   191   ar
    40   190   192   ar
    41   242   243    2
    42   251   252   ar
    43   251   253   ar
    44   180   182   ar
    45   180   179   ar
    46   182   183   ar
    47   175   174    1
    48   175   176    1
    49   175   178    1
    50   243   244    1
    51   243   245    1
    52   252   254   ar
    53   253   255   ar
    54   163   161   ar
    55   163   164   ar
    56   161   160   ar
    57   179   178    1
    58   179   181   ar
    59   254   256   ar
    60   183   181   ar
    61   255   256   ar
    62   164   162   ar
    63   158   157    2
    64   256   257    1
    65   156   157    1
    66   156   155    1
    67   156   159    1
    68   160   162   ar
    69   160   159    1
    70   157   165   am
    71   225   226    2
    72   225   224    1
    73    72    70   ar
    74    72    73   ar
    75   168   167    2
    76    55    54    2
    77    70    68   ar
    78    61    60    1
    79   224   223    1
    80   224   227    1
    81   167   166    1
    82   165   166    1
    83    73    71   ar
    84    59    60    2
    85    59    58    1
    86   166   169    1
    87   229   231   ar
    88   229   228   ar
    89    60    62    1
    90   227   228    1
    91    54    53    1
    92    54    63   am
    93    57    58    1
    94    57    56    1
    95   108   105    1
    96   219   221   ar
    97   219   218   ar
    98    68    67    1
    99    68    69   ar
   100   231   233   ar
   101   221   222   ar
   102   107   106    2
   103    71    69   ar
   104    64    67    1
   105    64    63    1
   106    64    65    1
   107   228   230   ar
   108    53    56    1
   109    53    52    1
   110   173   171   ar
   111   151   150    2
   112   148   149    1
   113   169   170    1
   114   218   217    1
   115   218   220   ar
   116    65    66    2
   117   149   150    1
   118   149   152    1
   119   171   172   ar
   120   171   170    1
   121   217   214    1
   122   106   105    1
   123   105   104    1
   124   222   220   ar
   125   233   234    1
   126   233   232   ar
   127   216   215    2
   128   230   232   ar
   129   104    99   am
   130   215   214    1
   131   214   213    1
   132   153   152    1
   133   152   154    1
   134   139   137   ar
   135   135   134    2
   136    41    40    2
   137    99    98    1
   138    99   100    2
   139   213   204   am
   140    93    92    2
   141    98   101    1
   142    98    97    1
   143   133   134    1
   144   133   132    1
   145   133   136    1
   146    89    87   ar
   147    89    88   ar
   148   134   140   am
   149    40    39    1
   150   137   136    1
   151   137   138   ar
   152   101   103    1
   153   101   102    1
   154    42    39    1
   155    42    43    1
   156   211   209   ar
   157   211   212   ar
   158   143   142    2
   159    92    97   am
   160    92    91    1
   161   209   207   ar
   162   142   141    1
   163    87    85   ar
   164   204   205    2
   165   204   203    1
   166    88    86   ar
   167    94    91    1
   168    94    95    1
   169    39    38    1
   170   140   141    1
   171   141   144    1
   172    43    44   ar
   173    43    45   ar
   174   212   210   ar
   175   115   116    1
   176   115   114    1
   177    91    90    1
   178   207   206    1
   179   207   208   ar
   180    95    96    1
   181   206   203    1
   182    85    86   ar
   183    85    84    1
   184    44    46   ar
   185   203   202    1
   186    48    45   ar
   187    48    50   ar
   188    96    90    1
   189    45    47   ar
   190    90    82   am
   191   210   208   ar
   192   144   145    1
   193    50    51   ar
   194    46    47   ar
   195    82    83    2
   196    82    81    1
   197   114   113    1
   198    47    49   ar
   199    84    81    1
   200   113   110    1
   201   146   145   ar
   202   145   147   ar
   203    81    80    1
   204    51    49   ar
   205    12    11    1
   206   109   110    1
   207   110   111    1
   208    11    10   ar
   209    11     9   ar
   210    80    76   am
   211    10     8   ar
   212   126   125    2
   213     9     7   ar
   214    77    76    2
   215   111   112    2
   216   111   117   am
   217    76    75    1
   218     8     6   ar
   219     7     6   ar
   220     6     5    1
   221   117   118    1
   222   125   124    1
   223   123   124    1
   224    37    35   am
   225    36    35    2
   226     5     2    1
   227   119   120    2
   228   119   118    1
   229   124   127    1
   230    75    74    1
   231    75    78    1
   232   127   128    1
   233    20    18    1
   234   129   128    1
   235   129   130    1
   236    35    34    1
   237   118   121    1
   238   131   130    1
   239    33    32    2
   240    78    79    1
   241    28    27   ar
   242    18    19    1
   243    18    17    1
   244   121   122    1
   245    34    31    1
   246     2     1    1
   247     2     3    1
   248    31    32    1
   249    31    30    1
   250   122    79    1
   251    27    29   ar
   252    27    26    1
   253     3     4    2
   254    26    25    1
   255    25    22    1
   256    17    14    1
   257    16    15    2
   258    15    14    1
   259    15    21   am
   260    22    21    1
   261    22    23    1
   262    14    13    1
   263    23    24    2
