@<TRIPOS>MOLECULE
tmp/1r4wB00.pdb
 151 145 0 0 0
SMALL
GASTEIGER

@<TRIPOS>ATOM
      1  N        -43.3630    3.4540   14.4110 N.3    15  SER15      -0.1203
      2  CA       -42.8520    2.6000   13.3240 C.3    15  SER15       0.2005
      3  C        -41.5600    1.8270   13.5430 C.2    15  SER15       0.2461
      4  O        -40.4860    2.3830   13.7510 O.2    15  SER15      -0.2732
      5  CB       -42.7910    3.4700   12.0250 C.3    15  SER15       0.2103
      6  OG       -42.1680    2.8290   10.9500 O.3    15  SER15      -0.2182
      7  N        -41.6340    0.5040   13.5090 N.am   16  PRO16      -0.2717
      8  CA       -40.3480   -0.1770   13.7280 C.3    16  PRO16       0.1535
      9  C        -39.4030    0.0150   12.5100 C.2    16  PRO16       0.2598
     10  O        -38.1670    0.1040   12.6440 O.2    16  PRO16      -0.2715
     11  CB       -40.7650   -1.6350   13.9420 C.3    16  PRO16       0.0310
     12  CG       -41.9920   -1.7880   12.9770 C.3    16  PRO16       0.0237
     13  CD       -42.7180   -0.4400   13.1540 C.3    16  PRO16       0.0939
     14  N        -39.9490    0.0930   11.3100 N.am   17  TYR17      -0.1974
     15  CA       -39.0160    0.2920   10.1900 C.3    17  TYR17       0.1639
     16  C        -38.4290    1.7140   10.1810 C.2    17  TYR17       0.2290
     17  O        -37.3020    1.9070    9.7040 O.2    17  TYR17      -0.2864
     18  CB       -39.6830   -0.0050    8.8730 C.3    17  TYR17       0.0560
     19  CG       -39.9850   -1.4680    8.6680 C.ar   17  TYR17      -0.0198
     20  CD1      -39.0100   -2.3580    8.2660 C.ar   17  TYR17      -0.0009
     21  CD2      -41.2830   -1.9400    8.8190 C.ar   17  TYR17      -0.0009
     22  CE1      -39.3300   -3.7160    7.9990 C.ar   17  TYR17       0.0417
     23  CE2      -41.6270   -3.2620    8.5710 C.ar   17  TYR17       0.0417
     24  CZ       -40.6350   -4.1440    8.1550 C.ar   17  TYR17       0.1957
     25  OH       -41.0200   -5.4330    7.8950 O.3    17  TYR17      -0.2866
     26  N        -47.6520    8.8030   11.5040 N.3    43  LEU43      -0.1245
     27  CA       -48.0400    7.7830   10.5340 C.3    43  LEU43       0.1561
     28  C        -49.5140    7.8870   10.1650 C.2    43  LEU43       0.2260
     29  O        -49.8830    7.9510    8.9770 O.2    43  LEU43      -0.2867
     30  CB       -47.7540    6.4030   11.0860 C.3    43  LEU43       0.0270
     31  CG       -47.9700    5.2780   10.0700 C.3    43  LEU43       0.0019
     32  CD1      -47.2480    5.5570    8.6830 C.3    43  LEU43       0.0001
     33  CD2      -47.3950    4.0440   10.7200 C.3    43  LEU43       0.0001
     34  N        -51.1660    8.0280    6.6310 N.3    47  MET47      -0.1245
     35  CA       -52.0930    6.9560    6.2520 C.3    47  MET47       0.1570
     36  C        -53.4260    7.5250    5.7530 C.2    47  MET47       0.2261
     37  O        -54.0690    6.9390    4.8940 O.2    47  MET47      -0.2867
     38  CB       -52.3540    6.0240    7.4670 C.3    47  MET47       0.0387
     39  CG       -51.3430    4.9100    7.6700 C.3    47  MET47       0.0595
     40  SD       -50.5090    4.5430    6.0770 S.3    47  MET47      -0.1393
     41  CE       -49.8450    2.7170    6.4020 C.3    47  MET47       0.0692
     42  N        -53.8560    5.1850    2.6410 N.3    52  ASN52      -0.1225
     43  CA       -53.1330    3.9100    2.6550 C.3    52  ASN52       0.1785
     44  C        -53.3920    3.1660    3.9910 C.2    52  ASN52       0.2597
     45  O        -53.0220    3.6440    5.0740 O.2    52  ASN52      -0.2718
     46  CB       -51.6200    4.1620    2.4140 C.3    52  ASN52       0.1169
     47  CG       -50.8670    2.9060    1.8720 C.2    52  ASN52       0.2627
     48  OD1      -51.3930    2.1590    1.0240 O.2    52  ASN52      -0.2716
     49  ND2      -49.6260    2.6990    2.3500 N.am   52  ASN52      -0.0877
     50  N        -54.0430    2.0050    3.9020 N.am   53  GLN53      -0.1979
     51  CA       -54.3870    1.1920    5.0840 C.3    53  GLN53       0.1601
     52  C        -53.1620    0.4330    5.6830 C.2    53  GLN53       0.2287
     53  O        -52.1230    0.2680    4.9920 O.2    53  GLN53      -0.2864
     54  CB       -55.4900    0.1740    4.7110 C.3    53  GLN53       0.0394
     55  CG       -56.1750    0.4110    3.3650 C.3    53  GLN53       0.0908
     56  CD       -56.9820    1.7030    3.3180 C.2    53  GLN53       0.2608
     57  OE1      -56.5410    2.7200    2.7520 O.2    53  GLN53      -0.2717
     58  NE2      -58.1800    1.6680    3.9070 N.am   53  GLN53      -0.0878
     59  N        -50.4500   -2.2680    6.5810 N.3    55  PRO55      -0.2116
     60  CA       -49.9330   -3.3980    5.7760 C.3    55  PRO55       0.1372
     61  C        -50.2810   -4.8080    6.3490 C.2    55  PRO55       0.2244
     62  O        -50.1810   -5.8380    5.6510 O.2    55  PRO55      -0.2868
     63  CB       -48.4140   -3.0930    5.6500 C.3    55  PRO55       0.0268
     64  CG       -48.1020   -2.2940    6.8930 C.3    55  PRO55       0.0207
     65  CD       -49.3520   -1.4210    7.0980 C.3    55  PRO55       0.0892
     66  N        -49.1330  -11.2720    4.9600 N.3    61  LYS61      -0.1245
     67  CA       -48.2350  -10.1160    5.1110 C.3    61  LYS61       0.1561
     68  C        -47.9960   -9.6560    6.5820 C.2    61  LYS61       0.2260
     69  O        -46.8520   -9.4040    6.9940 O.2    61  LYS61      -0.2867
     70  CB       -48.7460   -8.9580    4.2510 C.3    61  LYS61       0.0271
     71  CG       -47.7680   -7.8540    4.0700 C.3    61  LYS61       0.0035
     72  CD       -48.3040   -6.8920    3.0070 C.3    61  LYS61       0.0206
     73  CE       -47.3470   -5.6950    2.7960 C.3    61  LYS61       0.1093
     74  NZ       -47.9380   -4.6670    1.8540 N.3    61  LYS61      -0.1314
     75  N        -44.1320   -9.5670    8.4980 N.3    65  ILE65      -0.1245
     76  CA       -43.4970   -8.4570    9.1990 C.3    65  ILE65       0.1561
     77  C        -42.9360   -8.8920   10.5390 C.2    65  ILE65       0.2260
     78  O        -41.7750   -8.5940   10.8340 O.2    65  ILE65      -0.2867
     79  CB       -44.4440   -7.2810    9.5010 C.3    65  ILE65       0.0252
     80  CG1      -45.1280   -6.7460    8.2410 C.3    65  ILE65       0.0019
     81  CG2      -43.6480   -6.1450   10.0950 C.3    65  ILE65       0.0019
     82  CD1      -44.1960   -6.4380    7.1230 C.3    65  ILE65       0.0001
     83  N        -39.9040  -11.1170   10.1270 N.3    68  GLU68      -0.1245
     84  CA       -38.8030  -10.3910    9.5390 C.3    68  GLU68       0.1567
     85  C        -38.0700   -9.4550   10.5040 C.2    68  GLU68       0.2260
     86  O        -36.8490   -9.3220   10.4220 O.2    68  GLU68      -0.2867
     87  CB       -39.3380   -9.5930    8.3310 C.3    68  GLU68       0.0388
     88  CG       -38.3440   -8.6180    7.7920 C.3    68  GLU68       0.1160
     89  CD       -38.8020   -7.9200    6.5270 C.2    68  GLU68       0.3649
     90  OE1      -39.5620   -6.9020    6.5960 O.co2  68  GLU68      -0.2457
     91  OE2      -38.3820   -8.4210    5.4570 O.co2  68  GLU68      -0.2457
     92  N        -34.0630   -8.5960   10.8930 N.3    72  LEU72      -0.1245
     93  CA       -33.5460   -7.2840   10.4960 C.3    72  LEU72       0.1561
     94  C        -32.8460   -6.5260   11.6930 C.2    72  LEU72       0.2260
     95  O        -31.9130   -5.7130   11.5120 O.2    72  LEU72      -0.2867
     96  CB       -34.7250   -6.4340    9.9790 C.3    72  LEU72       0.0270
     97  CG       -35.3550   -6.6660    8.5950 C.3    72  LEU72       0.0019
     98  CD1      -36.6320   -5.8100    8.4890 C.3    72  LEU72       0.0001
     99  CD2      -34.3230   -6.2480    7.5190 C.3    72  LEU72       0.0001
    100  N        -46.4790    7.7340    1.2500 N.3   180  PHE180     -0.1227
    101  CA       -47.6530    6.9040    1.4530 C.3   180  PHE180      0.1736
    102  C        -47.4310    6.0490    2.7110 C.2   180  PHE180      0.2596
    103  O        -48.3300    5.3430    3.1370 O.2   180  PHE180     -0.2718
    104  CB       -47.9200    6.0300    0.2270 C.3   180  PHE180      0.0547
    105  CG       -46.7530    5.1460   -0.1570 C.ar  180  PHE180     -0.0202
    106  CD1      -46.6100    3.8810    0.4190 C.ar  180  PHE180     -0.0042
    107  CD2      -45.8050    5.5800   -1.0990 C.ar  180  PHE180     -0.0042
    108  CE1      -45.5260    3.0460    0.0500 C.ar  180  PHE180     -0.0003
    109  CE2      -44.7420    4.7760   -1.4630 C.ar  180  PHE180     -0.0003
    110  CZ       -44.5840    3.5020   -0.9000 C.ar  180  PHE180     -0.0000
    111  N        -46.2440    6.1130    3.3090 N.am  181  GLY181     -0.1942
    112  CA       -46.0000    5.3640    4.5300 C.3   181  GLY181      0.2014
    113  C        -44.7550    5.9330    5.1860 C.2   181  GLY181      0.2638
    114  O        -44.2980    7.0170    4.7810 O.2   181  GLY181     -0.2714
    115  N        -44.2070    5.2510    6.1940 N.am  182  LEU182     -0.1977
    116  CA       -42.9720    5.7200    6.8650 C.3   182  LEU182      0.1596
    117  C        -42.0770    4.5040    7.1300 C.2   182  LEU182      0.2287
    118  O        -42.5740    3.3900    7.2690 O.2   182  LEU182     -0.2864
    119  CB       -43.2960    6.4250    8.1910 C.3   182  LEU182      0.0297
    120  CG       -43.9690    7.8290    8.0870 C.3   182  LEU182      0.0022
    121  CD1      -44.2710    8.2980    9.4620 C.3   182  LEU182      0.0001
    122  CD2      -43.0720    8.8530    7.3270 C.3   182  LEU182      0.0001
    123  N        -38.9300    5.3390   -0.0010 N.3   197  PHE197     -0.1227
    124  CA       -39.6980    4.8120    1.0730 C.3   197  PHE197      0.1736
    125  C        -38.9720    3.5920    1.6370 C.2   197  PHE197      0.2596
    126  O        -38.4150    2.7700    0.8550 O.2   197  PHE197     -0.2718
    127  CB       -41.0890    4.4140    0.5230 C.3   197  PHE197      0.0547
    128  CG       -41.8610    3.4930    1.4400 C.ar  197  PHE197     -0.0202
    129  CD1      -42.3550    3.9640    2.6700 C.ar  197  PHE197     -0.0042
    130  CD2      -42.0660    2.1500    1.0830 C.ar  197  PHE197     -0.0042
    131  CE1      -43.0610    3.1090    3.5520 C.ar  197  PHE197     -0.0003
    132  CE2      -42.7600    1.2800    1.9370 C.ar  197  PHE197     -0.0003
    133  CZ       -43.2670    1.7500    3.1760 C.ar  197  PHE197     -0.0000
    134  N        -39.0110    3.4670    2.9680 N.am  198  GLY198     -0.1942
    135  CA       -38.4340    2.3150    3.6290 C.3   198  GLY198      0.2014
    136  C        -37.0350    2.3630    4.2230 C.2   198  GLY198      0.2640
    137  O        -36.2180    3.2570    3.8960 O.2   198  GLY198     -0.2714
    138  N        -36.7290    1.3860    5.0620 N.am  199  SER199     -0.1935
    139  CA       -35.4070    1.3460    5.6160 C.3   199  SER199      0.2055
    140  C        -34.5430    0.4520    4.6720 C.2   199  SER199      0.2643
    141  O        -33.3450    0.1980    4.9500 O.2   199  SER199     -0.2714
    142  CB       -35.4420    0.7610    7.0120 C.3   199  SER199      0.2130
    143  OG       -35.9390   -0.5580    6.8380 O.3   199  SER199     -0.2179
    144  N        -35.1310   -0.0280    3.5720 N.am  200  ASP200     -0.1971
    145  CA       -34.3340   -0.8350    2.6490 C.3   200  ASP200      0.1709
    146  C        -34.0350   -0.1130    1.3240 C.2   200  ASP200      0.2293
    147  O        -33.8690   -0.7310    0.2580 O.2   200  ASP200     -0.2864
    148  CB       -34.9610   -2.2150    2.3900 C.3   200  ASP200      0.1436
    149  CG       -36.4500   -2.1490    2.0990 C.2   200  ASP200      0.3671
    150  OD1      -37.0120   -1.0280    1.8180 O.co2 200  ASP200     -0.2456
    151  OD2      -37.0960   -3.2440    2.1330 O.co2 200  ASP200     -0.2456
@<TRIPOS>BOND
     1   109   107   ar
     2   109   110   ar
     3   107   105   ar
     4   110   108   ar
     5   105   104    1
     6   105   106   ar
     7   123   124    1
     8   108   106   ar
     9   104   101    1
    10   147   146    2
    11   127   124    1
    12   127   128    1
    13   126   125    2
    14    48    47    2
    15   124   125    1
    16   130   128   ar
    17   130   132   ar
    18   100   101    1
    19   146   145    1
    20   128   129   ar
    21   101   102    1
    22   125   134   am
    23   150   149   ar
    24    74    73    1
    25    47    49   am
    26    47    46    1
    27   132   133   ar
    28   149   151   ar
    29   149   148    1
    30   148   145    1
    31    46    43    1
    32    42    43    1
    33   145   144    1
    34    43    44    1
    35   129   131   ar
    36   102   103    2
    37   102   111   am
    38    57    56    2
    39    73    72    1
    40   134   135    1
    41    72    71    1
    42   133   131   ar
    43   111   112    1
    44    56    55    1
    45    56    58   am
    46    55    54    1
    47   144   140   am
    48   135   136    1
    49   137   136    2
    50    50    44   am
    51    50    51    1
    52    44    45    2
    53    71    70    1
    54   136   138   am
    55    70    67    1
    56   112   113    1
    57   140   141    2
    58   140   139    1
    59    54    51    1
    60   114   113    2
    61    37    36    2
    62    66    67    1
    63    53    52    2
    64   138   139    1
    65    51    52    1
    66    67    68    1
    67   113   115   am
    68    91    89   ar
    69   139   142    1
    70    63    60    1
    71    63    64    1
    72    62    61    2
    73    36    35    1
    74    60    61    1
    75    60    59    1
    76    40    41    1
    77    40    39    1
    78   115   116    1
    79    35    34    1
    80    35    38    1
    81    89    90   ar
    82    89    88    1
    83    59    65    1
    84    68    69    2
    85   143   142    1
    86   116   117    1
    87   116   119    1
    88    64    65    1
    89    82    80    1
    90   117   118    2
    91   122   120    1
    92    38    39    1
    93    99    97    1
    94    88    87    1
    95    25    24    1
    96    22    24   ar
    97    22    20   ar
    98   120   119    1
    99   120   121    1
   100    24    23   ar
   101    80    79    1
   102    20    19   ar
   103    87    84    1
   104    98    97    1
   105    75    76    1
   106    23    21   ar
   107    97    96    1
   108    19    21   ar
   109    19    18    1
   110    32    31    1
   111    18    15    1
   112    29    28    2
   113    76    79    1
   114    76    77    1
   115    79    81    1
   116    84    83    1
   117    84    85    1
   118    17    16    2
   119    96    93    1
   120    31    33    1
   121    31    30    1
   122    28    27    1
   123    16    15    1
   124    15    14    1
   125    86    85    2
   126    93    92    1
   127    93    94    1
   128    27    30    1
   129    27    26    1
   130    77    78    2
   131     6     5    1
   132    14     9   am
   133    95    94    2
   134     5     2    1
   135     9    10    2
   136     9     8    1
   137    12    13    1
   138    12    11    1
   139    13     7    1
   140     2     3    1
   141     2     1    1
   142     7     3   am
   143     7     8    1
   144     3     4    2
   145     8    11    1
