@<TRIPOS>MOLECULE
tmp/1r55A00.pdb
 130 126 0 0 0
SMALL
GASTEIGER

@<TRIPOS>ATOM
      1  N          6.2250    4.6920   28.1810 N.3   101  GLY101     -0.1210
      2  CA         5.7350    5.6390   27.1920 C.3   101  GLY101      0.1956
      3  C          6.8030    6.4670   26.4940 C.2   101  GLY101      0.2612
      4  O          6.4880    7.4500   25.8220 O.2   101  GLY101     -0.2717
      5  N          8.0630    6.0720   26.6490 N.am  102  ALA102     -0.1965
      6  CA         9.1900    6.7740   26.0280 C.3   102  ALA102      0.1728
      7  C          9.3710    8.1980   26.5520 C.2   102  ALA102      0.2617
      8  O         10.1340    8.9840   25.9910 O.2   102  ALA102     -0.2715
      9  CB         9.0250    6.7940   24.5090 C.3   102  ALA102      0.0334
     10  N          8.6660    8.5350   27.6260 N.am  103  THR103     -0.1937
     11  CA         8.7820    9.8650   28.2100 C.3   103  THR103      0.2028
     12  C         10.1460   10.0010   28.8740 C.2   103  THR103      0.2642
     13  O         10.5730    9.1110   29.6080 O.2   103  THR103     -0.2714
     14  CB         7.6950   10.1020   29.2720 C.3   103  THR103      0.1808
     15  OG1        6.4030   10.0160   28.6600 O.3   103  THR103     -0.2208
     16  CG2        7.8610   11.4710   29.9060 C.3   103  THR103      0.0379
     17  N         10.8340   11.1100   28.6130 N.am  104  VAL104     -0.1963
     18  CA        12.1460   11.3210   29.2130 C.3   104  VAL104      0.1727
     19  C         12.1700   12.4380   30.2500 C.2   104  VAL104      0.2617
     20  O         13.1560   12.5920   30.9680 O.2   104  VAL104     -0.2715
     21  CB        13.2370   11.6010   28.1390 C.3   104  VAL104      0.0290
     22  CG1       13.5100   10.3380   27.3410 C.3   104  VAL104      0.0023
     23  CG2       12.8060   12.7330   27.2120 C.3   104  VAL104      0.0023
     24  N         11.0860   13.2060   30.3370 N.am  105  GLY105     -0.1940
     25  CA        11.0290   14.2850   31.3110 C.3   105  GLY105      0.2014
     26  C          9.6400   14.8700   31.4900 C.2   105  GLY105      0.2639
     27  O          8.8120   14.7900   30.5820 O.2   105  GLY105     -0.2714
     28  N          9.3930   15.4590   32.6590 N.am  106  LEU106     -0.1963
     29  CA         8.1030   16.0730   32.9950 C.3   106  LEU106      0.1728
     30  C          8.2760   17.2080   34.0040 C.2   106  LEU106      0.2616
     31  O          9.2240   17.2130   34.7800 O.2   106  LEU106     -0.2715
     32  CB         7.1560   15.0490   33.6290 C.3   106  LEU106      0.0311
     33  CG         6.4490   14.1150   32.6500 C.3   106  LEU106      0.0022
     34  CD1        5.5750   13.1250   33.4220 C.3   106  LEU106      0.0001
     35  CD2        5.5960   14.8980   31.6610 C.3   106  LEU106      0.0001
     36  N          7.3380   18.1520   34.0010 N.am  107  ALA107     -0.1977
     37  CA         7.3680   19.2810   34.9280 C.3   107  ALA107      0.1597
     38  C          6.0190   19.9930   34.9250 C.2   107  ALA107      0.2287
     39  O          5.3500   20.0570   33.8980 O.2   107  ALA107     -0.2864
     40  CB         8.4690   20.2610   34.5320 C.3   107  ALA107      0.0319
     41  N         19.1320    9.8430   29.6270 N.3   125  HIS125     -0.1241
     42  CA        18.9730    8.9510   28.4850 C.3   125  HIS125      0.1621
     43  C         20.0720    8.8580   27.4300 C.2   125  HIS125      0.2264
     44  O         20.0750    7.9180   26.6310 O.2   125  HIS125     -0.2867
     45  CB        17.6480    9.2870   27.7970 C.3   125  HIS125      0.0745
     46  CG        17.5370   10.7180   27.3640 C.ar  125  HIS125      0.0817
     47  ND1       18.0910   11.1890   26.1930 N.ar  125  HIS125     -0.2268
     48  CD2       16.9310   11.7800   27.9470 C.ar  125  HIS125      0.1154
     49  CE1       17.8270   12.4780   26.0700 C.ar  125  HIS125      0.1986
     50  NE2       17.1250   12.8610   27.1210 N.ar  125  HIS125     -0.2212
     51  N         19.3050   19.0820   27.8250 N.3   134  ALA134     -0.1231
     52  CA        18.2640   19.6170   26.9590 C.3   134  ALA134      0.1694
     53  C         16.8860   19.2440   27.4980 C.2   134  ALA134      0.2592
     54  O         15.9350   20.0240   27.3920 O.2   134  ALA134     -0.2718
     55  CB        18.4400   19.1000   25.5360 C.3   134  ALA134      0.0304
     56  N         16.7770   18.0540   28.0780 N.am  135  THR135     -0.1953
     57  CA        15.5150   17.6110   28.6510 C.3   135  THR135      0.1897
     58  C         15.2240   18.4480   29.8940 C.2   135  THR135      0.2313
     59  O         14.1160   18.9520   30.0700 O.2   135  THR135     -0.2863
     60  CB        15.5760   16.1140   29.0340 C.3   135  THR135      0.1794
     61  OG1       15.6370   15.3240   27.8400 O.3   135  THR135     -0.2208
     62  CG2       14.3490   15.7030   29.8400 C.3   135  THR135      0.0378
     63  N         14.1580   21.8280   29.0540 N.3   138  HIS138     -0.1226
     64  CA        12.8070   21.7590   28.5030 C.3   138  HIS138      0.1752
     65  C         11.8080   21.7830   29.6580 C.2   138  HIS138      0.2595
     66  O         10.8130   22.5120   29.6120 O.2   138  HIS138     -0.2718
     67  CB        12.6430   20.4650   27.6950 C.3   138  HIS138      0.0759
     68  CG        11.2710   20.2640   27.1240 C.ar  138  HIS138      0.0818
     69  ND1       10.9610   20.5500   25.8100 N.ar  138  HIS138     -0.2268
     70  CD2       10.1360   19.7760   27.6800 C.ar  138  HIS138      0.1154
     71  CE1        9.6970   20.2410   25.5810 C.ar  138  HIS138      0.1986
     72  NE2        9.1730   19.7700   26.6990 N.ar  138  HIS138     -0.2212
     73  N         12.0790   21.0000   30.7030 N.am  139  GLU139     -0.1979
     74  CA        11.1760   20.9660   31.8530 C.3   139  GLU139      0.1602
     75  C         11.2000   22.3010   32.6020 C.2   139  GLU139      0.2287
     76  O         10.1730   22.7560   33.1070 O.2   139  GLU139     -0.2864
     77  CB        11.5400   19.8200   32.8030 C.3   139  GLU139      0.0415
     78  CG        11.6430   18.4360   32.1580 C.3   139  GLU139      0.1163
     79  CD        10.5640   18.1460   31.1160 C.2   139  GLU139      0.3649
     80  OE1        9.4250   18.6530   31.2410 O.co2 139  GLU139     -0.2457
     81  OE2       10.8600   17.3860   30.1690 O.co2 139  GLU139     -0.2457
     82  N          8.8850   24.6370   30.8330 N.3   142  HIS142     -0.1241
     83  CA         7.4760   24.4980   31.1890 C.3   142  HIS142      0.1621
     84  C          7.2160   25.2170   32.5070 C.2   142  HIS142      0.2264
     85  O          6.1870   25.8640   32.6780 O.2   142  HIS142     -0.2867
     86  CB         7.0830   23.0260   31.3480 C.3   142  HIS142      0.0745
     87  CG         6.8520   22.3130   30.0530 C.ar  142  HIS142      0.0817
     88  ND1        5.9790   22.7750   29.0930 N.ar  142  HIS142     -0.2268
     89  CD2        7.3630   21.1550   29.5710 C.ar  142  HIS142      0.1154
     90  CE1        5.9620   21.9340   28.0740 C.ar  142  HIS142      0.1986
     91  NE2        6.7920   20.9420   28.3400 N.ar  142  HIS142     -0.2212
     92  N          5.2010   24.0040   24.0990 N.3   148  HIS148     -0.1241
     93  CA         5.9800   23.3440   23.0670 C.3   148  HIS148      0.1621
     94  C          5.9460   24.2610   21.8510 C.2   148  HIS148      0.2264
     95  O          4.9420   24.9360   21.5990 O.2   148  HIS148     -0.2867
     96  CB         5.3760   21.9790   22.7280 C.3   148  HIS148      0.0745
     97  CG         5.6360   20.9280   23.7630 C.ar  148  HIS148      0.0817
     98  ND1        5.0640   19.6740   23.7150 N.ar  148  HIS148     -0.2268
     99  CD2        6.4220   20.9380   24.8680 C.ar  148  HIS148      0.1154
    100  CE1        5.4830   18.9590   24.7430 C.ar  148  HIS148      0.1986
    101  NE2        6.3080   19.7030   25.4590 N.ar  148  HIS148     -0.2212
    102  N         14.9810   24.0050   22.1400 N.3   165  VAL165     -0.1245
    103  CA        14.6700   23.3040   23.3800 C.3   165  VAL165      0.1561
    104  C         13.2100   22.9230   23.6130 C.2   165  VAL165      0.2260
    105  O         12.9330   21.8350   24.1170 O.2   165  VAL165     -0.2867
    106  CB        15.1890   24.1120   24.6020 C.3   165  VAL165      0.0252
    107  CG1       14.8230   23.4140   25.9010 C.3   165  VAL165      0.0019
    108  CG2       16.6960   24.2720   24.5030 C.3   165  VAL165      0.0019
    109  N         10.9790   21.8140   21.6800 N.3   167  ALA167     -0.1231
    110  CA        10.4000   20.8900   20.7070 C.3   167  ALA167      0.1694
    111  C          9.7250   19.8060   21.5470 C.2   167  ALA167      0.2592
    112  O         10.1520   19.5400   22.6720 O.2   167  ALA167     -0.2718
    113  CB        11.4880   20.2860   19.8370 C.3   167  ALA167      0.0304
    114  N          8.6830   19.1820   21.0030 N.am  168  ALA168     -0.1966
    115  CA         7.9350   18.1480   21.7210 C.3   168  ALA168      0.1728
    116  C          8.6510   16.8040   21.8030 C.2   168  ALA168      0.2616
    117  O          8.3280   15.9660   22.6490 O.2   168  ALA168     -0.2715
    118  CB         6.5690   17.9620   21.0740 C.3   168  ALA168      0.0334
    119  N          9.6150   16.6020   20.9160 N.am  169  ALA169     -0.1963
    120  CA        10.3780   15.3670   20.8820 C.3   169  ALA169      0.1728
    121  C         11.8580   15.6990   20.9440 C.2   169  ALA169      0.2616
    122  O         12.2810   16.7680   20.5010 O.2   169  ALA169     -0.2715
    123  CB        10.0690   14.6030   19.6030 C.3   169  ALA169      0.0334
    124  N         12.6490   14.7840   21.4880 N.am  170  THR170     -0.1951
    125  CA        14.0770   15.0290   21.5820 C.3   170  THR170      0.1897
    126  C         14.8890   13.8800   21.0120 C.2   170  THR170      0.2313
    127  O         14.3750   12.7820   20.7750 O.2   170  THR170     -0.2863
    128  CB        14.5120   15.2900   23.0420 C.3   170  THR170      0.1794
    129  OG1       15.8300   15.8520   23.0480 O.3   170  THR170     -0.2208
    130  CG2       14.5150   13.9990   23.8400 C.3   170  THR170      0.0378
@<TRIPOS>BOND
     1   123   120    1
     2   113   110    1
     3   122   121    2
     4   110   111    1
     5   110   109    1
     6   127   126    2
     7   120   119    1
     8   120   121    1
     9   119   116   am
    10   121   124   am
    11   114   111   am
    12   114   115    1
    13   126   125    1
    14   118   115    1
    15   124   125    1
    16   111   112    2
    17   125   128    1
    18    95    94    2
    19   115   116    1
    20   116   117    2
    21    94    93    1
    22   102   103    1
    23    96    93    1
    24    96    97    1
    25   128   129    1
    26   128   130    1
    27    93    92    1
    28   103   104    1
    29   103   106    1
    30   104   105    2
    31    98    97   ar
    32    98   100   ar
    33    97    99   ar
    34   108   106    1
    35     9     6    1
    36   106   107    1
    37   100   101   ar
    38    99   101   ar
    39    55    52    1
    40    71    69   ar
    41    71    72   ar
    42    69    68   ar
    43     4     3    2
    44     8     7    2
    45     6     7    1
    46     6     5    1
    47    49    47   ar
    48    49    50   ar
    49    47    46   ar
    50     3     5   am
    51     3     2    1
    52     7    10   am
    53    44    43    2
    54    72    70   ar
    55    52    53    1
    56    52    51    1
    57    50    48   ar
    58    68    70   ar
    59    68    67    1
    60     2     1    1
    61    23    21    1
    62    22    21    1
    63    46    45    1
    64    46    48   ar
    65    54    53    2
    66    43    42    1
    67    53    56   am
    68    10    11    1
    69    67    64    1
    70    45    42    1
    71    61    60    1
    72    90    91   ar
    73    90    88   ar
    74    56    57    1
    75    21    18    1
    76    11    12    1
    77    11    14    1
    78    91    89   ar
    79    42    41    1
    80    64    63    1
    81    64    65    1
    82    17    12   am
    83    17    18    1
    84    57    60    1
    85    57    58    1
    86    15    14    1
    87    12    13    2
    88    60    62    1
    89    88    87   ar
    90    18    19    1
    91    14    16    1
    92    89    87   ar
    93    66    65    2
    94    65    73   am
    95    58    59    2
    96    87    86    1
    97    81    79   ar
    98    19    24   am
    99    19    20    2
   100    24    25    1
   101    27    26    2
   102    73    74    1
   103    82    83    1
   104    79    80   ar
   105    79    78    1
   106    83    86    1
   107    83    84    1
   108    25    26    1
   109    26    28   am
   110    35    33    1
   111    74    75    1
   112    74    77    1
   113    78    77    1
   114    84    85    2
   115    75    76    2
   116    33    34    1
   117    33    32    1
   118    28    29    1
   119    29    32    1
   120    29    30    1
   121    39    38    2
   122    36    30   am
   123    36    37    1
   124    30    31    2
   125    40    37    1
   126    38    37    1
