@<TRIPOS>MOLECULE
tmp/1r58A00.pdb
 178 173 0 0 0
SMALL
GASTEIGER

@<TRIPOS>ATOM
      1  N         23.6340   31.1310    9.6880 N.3   110  PHE110     -0.1228
      2  CA        23.6900   31.9400   10.8960 C.3   110  PHE110      0.1721
      3  C         25.1120   31.9520   11.4560 C.2   110  PHE110      0.2437
      4  O         25.9580   31.1710   11.0240 O.2   110  PHE110     -0.2733
      5  CB        22.6810   31.4300   11.9410 C.3   110  PHE110      0.0547
      6  CG        22.7140   29.9390   12.1650 C.ar  110  PHE110     -0.0202
      7  CD1       21.8100   29.1060   11.5120 C.ar  110  PHE110     -0.0042
      8  CD2       23.6230   29.3740   13.0580 C.ar  110  PHE110     -0.0042
      9  CE1       21.8050   27.7290   11.7500 C.ar  110  PHE110     -0.0003
     10  CE2       23.6280   27.9990   13.3030 C.ar  110  PHE110     -0.0003
     11  CZ        22.7160   27.1750   12.6490 C.ar  110  PHE110     -0.0000
     12  N         25.3960   32.8520   12.4150 N.am  111  PRO111     -0.2729
     13  CA        26.7280   32.9620   13.0150 C.3   111  PRO111      0.1401
     14  C         27.2040   31.6870   13.6830 C.2   111  PRO111      0.2269
     15  O         26.4020   30.8300   14.0460 O.2   111  PRO111     -0.2865
     16  CB        26.5660   34.1000   14.0260 C.3   111  PRO111      0.0296
     17  CG        25.4560   34.9140   13.4620 C.3   111  PRO111      0.0237
     18  CD        24.4900   33.8590   12.9920 C.3   111  PRO111      0.0939
     19  N         24.0750   29.1300   24.4900 N.3   121  ALA121     -0.1231
     20  CA        23.8770   29.4850   23.0930 C.3   121  ALA121      0.1694
     21  C         23.9220   30.9750   22.7840 C.2   121  ALA121      0.2592
     22  O         23.8580   31.8230   23.6730 O.2   121  ALA121     -0.2718
     23  CB        22.5370   28.9170   22.6180 C.3   121  ALA121      0.0304
     24  N         24.0270   31.2610   21.4900 N.am  122  HIS122     -0.1976
     25  CA        24.0330   32.6160   20.9610 C.3   122  HIS122      0.1656
     26  C         25.2480   33.4780   21.2600 C.2   122  HIS122      0.2291
     27  O         25.1770   34.7070   21.2110 O.2   122  HIS122     -0.2864
     28  CB        22.7410   33.3180   21.3780 C.3   122  HIS122      0.0771
     29  CG        21.5090   32.6160   20.8990 C.ar  122  HIS122      0.0820
     30  ND1       20.2360   32.9960   21.2660 N.ar  122  HIS122     -0.2267
     31  CD2       21.3590   31.5480   20.0780 C.ar  122  HIS122      0.1154
     32  CE1       19.3560   32.1950   20.6930 C.ar  122  HIS122      0.1986
     33  NE2       20.0120   31.3070   19.9670 N.ar  122  HIS122     -0.2212
     34  N         27.8760   25.5630   17.2990 N.3   142  ASP142     -0.1239
     35  CA        26.5900   25.5760   16.6120 C.3   142  ASP142      0.1674
     36  C         26.6720   26.5090   15.3990 C.2   142  ASP142      0.2266
     37  O         26.6730   27.7340   15.5440 O.2   142  ASP142     -0.2867
     38  CB        25.5200   26.0680   17.5940 C.3   142  ASP142      0.1410
     39  CG        24.1150   25.9210   17.0610 C.2   142  ASP142      0.3668
     40  OD1       23.9450   25.6840   15.8440 O.co2 142  ASP142     -0.2456
     41  OD2       23.1780   26.0570   17.8750 O.co2 142  ASP142     -0.2456
     42  N         20.5510   23.3700   10.5950 N.3   153  ASP153     -0.1239
     43  CA        20.8410   23.8660   11.9360 C.3   153  ASP153      0.1674
     44  C         21.3230   22.6200   12.6720 C.2   153  ASP153      0.2266
     45  O         20.5290   21.7490   13.0150 O.2   153  ASP153     -0.2867
     46  CB        19.5660   24.4200   12.5760 C.3   153  ASP153      0.1410
     47  CG        19.8400   25.1610   13.8670 C.2   153  ASP153      0.3668
     48  OD1       18.8840   25.6850   14.4630 O.co2 153  ASP153     -0.2456
     49  OD2       21.0130   25.2180   14.2840 O.co2 153  ASP153     -0.2456
     50  N         14.6970   26.5960   26.5250 N.3   219  LEU219     -0.1231
     51  CA        15.3990   26.4460   25.2530 C.3   219  LEU219      0.1693
     52  C         14.6760   25.2860   24.5930 C.2   219  LEU219      0.2592
     53  O         14.0740   24.4600   25.2840 O.2   219  LEU219     -0.2718
     54  CB        16.8810   26.1200   25.4520 C.3   219  LEU219      0.0284
     55  CG        17.7740   27.3370   25.7190 C.3   219  LEU219      0.0019
     56  CD1       19.2240   26.8940   25.8760 C.3   219  LEU219      0.0001
     57  CD2       17.6510   28.3250   24.5640 C.3   219  LEU219      0.0001
     58  N         14.7170   25.2110   23.2690 N.am  220  ASN220     -0.1974
     59  CA        13.9910   24.1460   22.5990 C.3   220  ASN220      0.1688
     60  C         14.3110   23.9860   21.1270 C.2   220  ASN220      0.2292
     61  O         15.0780   24.7580   20.5570 O.2   220  ASN220     -0.2864
     62  CB        12.4950   24.4050   22.7540 C.3   220  ASN220      0.1181
     63  CG        12.1440   25.8690   22.5860 C.2   220  ASN220      0.2629
     64  OD1       12.4230   26.4740   21.5490 O.2   220  ASN220     -0.2716
     65  ND2       11.5350   26.4520   23.6110 N.am  220  ASN220     -0.0877
     66  N         12.7780   23.4010   17.0600 N.3   222  HIS222     -0.1241
     67  CA        11.8810   24.2550   16.2920 C.3   222  HIS222      0.1621
     68  C         11.7540   23.8170   14.8470 C.2   222  HIS222      0.2264
     69  O         12.6540   23.1800   14.3060 O.2   222  HIS222     -0.2867
     70  CB        12.4410   25.6690   16.3150 C.3   222  HIS222      0.0745
     71  CG        13.8740   25.7360   15.8840 C.ar  222  HIS222      0.0817
     72  ND1       14.2520   26.0090   14.5870 N.ar  222  HIS222     -0.2268
     73  CD2       15.0210   25.5140   16.5720 C.ar  222  HIS222      0.1154
     74  CE1       15.5690   25.9560   14.4950 C.ar  222  HIS222      0.1986
     75  NE2       16.0590   25.6580   15.6850 N.ar  222  HIS222     -0.2212
     76  N         14.9500   30.3800   10.1100 N.3   229  ILE229     -0.1231
     77  CA        15.4740   29.4530   11.1080 C.3   229  ILE229      0.1692
     78  C         14.3970   28.9620   12.0820 C.2   229  ILE229      0.2592
     79  O         14.4480   27.8210   12.5450 O.2   229  ILE229     -0.2718
     80  CB        16.6500   30.0990   11.8990 C.3   229  ILE229      0.0266
     81  CG1       17.2890   29.0610   12.8220 C.3   229  ILE229      0.0019
     82  CG2       16.1610   31.3040   12.6990 C.3   229  ILE229      0.0020
     83  CD1       18.1320   28.0380   12.0940 C.3   229  ILE229      0.0001
     84  N         13.4300   29.8240   12.3870 N.am  230  HIS230     -0.1976
     85  CA        12.3190   29.4740   13.2700 C.3   230  HIS230      0.1656
     86  C         11.0070   29.7380   12.5460 C.2   230  HIS230      0.2291
     87  O         10.5770   30.8830   12.4290 O.2   230  HIS230     -0.2864
     88  CB        12.3670   30.2890   14.5630 C.3   230  HIS230      0.0771
     89  CG        13.1180   29.6150   15.6640 C.ar  230  HIS230      0.0820
     90  ND1       14.4300   29.2130   15.5270 N.ar  230  HIS230     -0.2267
     91  CD2       12.7410   29.2570   16.9140 C.ar  230  HIS230      0.1154
     92  CE1       14.8270   28.6340   16.6450 C.ar  230  HIS230      0.1986
     93  NE2       13.8220   28.6480   17.5030 N.ar  230  HIS230     -0.2212
     94  N         16.9030   19.9510   18.8900 N.3   255  GLU255     -0.1245
     95  CA        18.0440   20.3330   19.7090 C.3   255  GLU255      0.1567
     96  C         17.7060   20.3010   21.1850 C.2   255  GLU255      0.2260
     97  O         16.6310   20.7310   21.6050 O.2   255  GLU255     -0.2867
     98  CB        18.5700   21.7240   19.3020 C.3   255  GLU255      0.0388
     99  CG        17.8020   22.9410   19.8030 C.3   255  GLU255      0.1160
    100  CD        18.3030   24.2550   19.1770 C.2   255  GLU255      0.3649
    101  OE1       17.5620   24.8500   18.3720 O.co2 255  GLU255     -0.2457
    102  OE2       19.4360   24.6920   19.4740 O.co2 255  GLU255     -0.2457
    103  N         19.4100   20.7620   25.3230 N.3   257  PHE257     -0.1241
    104  CA        20.4580   21.3660   26.1290 C.3   257  PHE257      0.1605
    105  C         20.3790   20.7540   27.5220 C.2   257  PHE257      0.2264
    106  O         19.2870   20.5930   28.0780 O.2   257  PHE257     -0.2867
    107  CB        20.2410   22.8810   26.2360 C.3   257  PHE257      0.0534
    108  CG        20.4920   23.6420   24.9530 C.ar  257  PHE257     -0.0203
    109  CD1       21.7620   24.1210   24.6480 C.ar  257  PHE257     -0.0042
    110  CD2       19.4460   23.9160   24.0730 C.ar  257  PHE257     -0.0042
    111  CE1       21.9910   24.8740   23.4820 C.ar  257  PHE257     -0.0003
    112  CE2       19.6600   24.6610   22.9130 C.ar  257  PHE257     -0.0003
    113  CZ        20.9380   25.1430   22.6170 C.ar  257  PHE257     -0.0000
    114  N         24.6360   38.4410   18.0820 N.3   273  HIS273     -0.1226
    115  CA        23.6620   37.8900   17.1390 C.3   273  HIS273      0.1752
    116  C         22.4860   38.8240   16.8810 C.2   273  HIS273      0.2596
    117  O         21.9390   39.4230   17.8130 O.2   273  HIS273     -0.2718
    118  CB        23.1180   36.5610   17.6700 C.3   273  HIS273      0.0759
    119  CG        24.0990   35.4320   17.6150 C.ar  273  HIS273      0.0818
    120  ND1       25.3390   35.4890   18.2150 N.ar  273  HIS273     -0.2268
    121  CD2       23.9970   34.1920   17.0780 C.ar  273  HIS273      0.1154
    122  CE1       25.9570   34.3320   18.0550 C.ar  273  HIS273      0.1986
    123  NE2       25.1650   33.5270   17.3690 N.ar  273  HIS273     -0.2212
    124  N         22.0950   38.9250   15.6120 N.am  274  TYR274     -0.1962
    125  CA        20.9820   39.7740   15.1930 C.3   274  TYR274      0.1771
    126  C         20.2720   39.1430   14.0010 C.2   274  TYR274      0.2619
    127  O         20.8880   38.4170   13.2170 O.2   274  TYR274     -0.2715
    128  CB        21.4930   41.1540   14.7750 C.3   274  TYR274      0.0574
    129  CG        22.1980   41.9120   15.8680 C.ar  274  TYR274     -0.0198
    130  CD1       21.5110   42.8330   16.6560 C.ar  274  TYR274     -0.0009
    131  CD2       23.5470   41.6820   16.1420 C.ar  274  TYR274     -0.0009
    132  CE1       22.1500   43.5040   17.6920 C.ar  274  TYR274      0.0417
    133  CE2       24.1940   42.3440   17.1770 C.ar  274  TYR274      0.0417
    134  CZ        23.4910   43.2520   17.9490 C.ar  274  TYR274      0.1957
    135  OH        24.1220   43.8940   18.9900 O.3   274  TYR274     -0.2866
    136  N         18.9820   39.4310   13.8600 N.am  275  MET275     -0.1977
    137  CA        18.2100   38.8970   12.7470 C.3   275  MET275      0.1605
    138  C         16.9410   39.7070   12.4790 C.2   275  MET275      0.2287
    139  O         16.1740   40.0100   13.3910 O.2   275  MET275     -0.2864
    140  CB        17.8470   37.4340   13.0190 C.3   275  MET275      0.0413
    141  CG        17.0920   36.7550   11.8860 C.3   275  MET275      0.0598
    142  SD        16.9790   34.9740   12.1540 S.3   275  MET275     -0.1393
    143  CE        15.6490   34.8930   13.3470 C.3   275  MET275      0.0692
    144  N         20.0630   35.0980   10.0680 N.3   305  ALA305     -0.1245
    145  CA        20.7590   35.7310   11.1800 C.3   305  ALA305      0.1562
    146  C         22.1800   36.1170   10.7900 C.2   305  ALA305      0.2260
    147  O         22.7840   35.5140    9.9030 O.2   305  ALA305     -0.2867
    148  CB        20.7890   34.7970   12.3850 C.3   305  ALA305      0.0290
    149  N         19.6860   39.0240   19.6690 N.3   335  TYR335     -0.1241
    150  CA        19.6700   37.6980   20.2860 C.3   335  TYR335      0.1605
    151  C         20.9330   37.5260   21.1210 C.2   335  TYR335      0.2264
    152  O         21.8970   36.8780   20.7000 O.2   335  TYR335     -0.2867
    153  CB        19.5960   36.6190   19.2040 C.3   335  TYR335      0.0534
    154  CG        18.2610   36.5660   18.4860 C.ar  335  TYR335     -0.0201
    155  CD1       17.2340   35.7380   18.9440 C.ar  335  TYR335     -0.0009
    156  CD2       18.0230   37.3410   17.3520 C.ar  335  TYR335     -0.0009
    157  CE1       16.0030   35.6810   18.2840 C.ar  335  TYR335      0.0417
    158  CE2       16.7980   37.2920   16.6880 C.ar  335  TYR335      0.0417
    159  CZ        15.7940   36.4590   17.1600 C.ar  335  TYR335      0.1957
    160  OH        14.5820   36.3990   16.5080 O.3   335  TYR335     -0.2866
    161  N         25.1790   20.7760   24.4500 N.3   348  GLN348     -0.1245
    162  CA        24.1730   20.7690   23.3920 C.3   348  GLN348      0.1566
    163  C         24.4780   19.8330   22.2170 C.2   348  GLN348      0.2260
    164  O         25.6290   19.5740   21.8800 O.2   348  GLN348     -0.2867
    165  CB        23.9890   22.1890   22.8360 C.3   348  GLN348      0.0367
    166  CG        23.2310   22.2450   21.5050 C.3   348  GLN348      0.0905
    167  CD        23.4550   23.5460   20.7530 C.2   348  GLN348      0.2608
    168  OE1       24.5440   24.1040   20.7920 O.2   348  GLN348     -0.2717
    169  NE2       22.4290   24.0210   20.0480 N.am  348  GLN348     -0.0878
    170  N         22.4530   18.9660   18.3220 N.3   350  GLU350     -0.1245
    171  CA        21.3600   19.3550   17.4510 C.3   350  GLU350      0.1567
    172  C         21.4670   18.7710   16.0480 C.2   350  GLU350      0.2260
    173  O         22.5520   18.6740   15.4820 O.2   350  GLU350     -0.2867
    174  CB        21.3390   20.8830   17.3670 C.3   350  GLU350      0.0388
    175  CG        20.2040   21.4740   16.5630 C.3   350  GLU350      0.1160
    176  CD        20.2300   22.9910   16.5570 C.2   350  GLU350      0.3649
    177  OE1       19.1800   23.6010   16.2560 O.co2 350  GLU350     -0.2457
    178  OE2       21.3010   23.5700   16.8420 O.co2 350  GLU350     -0.2457
@<TRIPOS>BOND
     1     1     2    1
     2   147   146    2
     3   144   145    1
     4    76    77    1
     5    42    43    1
     6   146   145    1
     7     2     3    1
     8     2     5    1
     9     4     3    2
    10    77    80    1
    11    77    78    1
    12   145   148    1
    13     3    12   am
    14     7     9   ar
    15     7     6   ar
    16     9    11   ar
    17   141   142    1
    18   141   140    1
    19    80    82    1
    20    80    81    1
    21    43    46    1
    22    43    44    1
    23     5     6    1
    24    78    84   am
    25    78    79    2
    26    83    81    1
    27   142   143    1
    28     6     8   ar
    29    84    85    1
    30    12    18    1
    31    12    13    1
    32    87    86    2
    33   138   137    1
    34   138   139    2
    35    86    85    1
    36    46    47    1
    37    11    10   ar
    38    44    45    2
    39   137   140    1
    40   137   136    1
    41    18    17    1
    42    13    14    1
    43    13    16    1
    44     8    10   ar
    45   127   126    2
    46    85    88    1
    47    17    16    1
    48    14    15    2
    49   136   126   am
    50    47    49   ar
    51    47    48   ar
    52   126   125    1
    53    69    68    2
    54    74    72   ar
    55    74    75   ar
    56    88    89    1
    57    72    71   ar
    58   128   125    1
    59   128   129    1
    60    68    67    1
    61   125   124    1
    62    36    37    2
    63    36    35    1
    64   173   172    2
    65    90    89   ar
    66    90    92   ar
    67   124   116   am
    68    89    91   ar
    69    75    73   ar
    70    40    39   ar
    71   129   131   ar
    72   129   130   ar
    73    71    70    1
    74    71    73   ar
    75   172   171    1
    76   131   133   ar
    77   177   176   ar
    78    67    70    1
    79    67    66    1
    80   160   159    1
    81   176   175    1
    82   176   178   ar
    83   175   174    1
    84    35    34    1
    85    35    38    1
    86    92    93   ar
    87   130   132   ar
    88   158   159   ar
    89   158   156   ar
    90   116   115    1
    91   116   117    2
    92    91    93   ar
    93    39    38    1
    94    39    41   ar
    95   121   123   ar
    96   121   119   ar
    97   115   118    1
    98   115   114    1
    99   159   157   ar
   100   133   134   ar
   101   156   154   ar
   102   174   171    1
   103   123   122   ar
   104   171   170    1
   105   119   118    1
   106   119   120   ar
   107   132   134   ar
   108   134   135    1
   109   122   120   ar
   110   157   155   ar
   111   101   100   ar
   112   154   155   ar
   113   154   153    1
   114    94    95    1
   115   100   102   ar
   116   100    99    1
   117   153   150    1
   118    98    95    1
   119    98    99    1
   120   149   150    1
   121    95    96    1
   122    33    31   ar
   123    33    32   ar
   124   169   167   am
   125    31    29   ar
   126   150   151    1
   127    61    60    2
   128    32    30   ar
   129   152   151    2
   130   167   168    2
   131   167   166    1
   132    29    30   ar
   133    29    28    1
   134    25    26    1
   135    25    28    1
   136    25    24    1
   137    60    59    1
   138    96    97    2
   139    27    26    2
   140    24    21   am
   141   166   165    1
   142    64    63    2
   143   164   163    2
   144   163   162    1
   145    63    62    1
   146    63    65   am
   147    59    62    1
   148    59    58    1
   149   113   112   ar
   150   113   111   ar
   151    23    20    1
   152    21    20    1
   153    21    22    2
   154   165   162    1
   155   112   110   ar
   156    20    19    1
   157    58    52   am
   158   162   161    1
   159   111   109   ar
   160   110   108   ar
   161    57    55    1
   162    52    51    1
   163    52    53    2
   164   109   108   ar
   165   108   107    1
   166    51    54    1
   167    51    50    1
   168   103   104    1
   169    54    55    1
   170    55    56    1
   171   104   107    1
   172   104   105    1
   173   105   106    2
