@<TRIPOS>MOLECULE
tmp/1r5aA00.pdb
 152 149 0 0 0
SMALL
GASTEIGER

@<TRIPOS>ATOM
      1  N        118.9260   23.2750   -9.1640 N.3     7  LEU7       -0.1245
      2  CA       117.7860   23.6350   -9.9910 C.3     7  LEU7        0.1561
      3  C        118.0480   25.0850  -10.3740 C.2     7  LEU7        0.2260
      4  O        118.0900   25.9650   -9.5130 O.2     7  LEU7       -0.2867
      5  CB       116.4870   23.5550   -9.2080 C.3     7  LEU7        0.0270
      6  CG       115.3140   23.8590  -10.1260 C.3     7  LEU7        0.0019
      7  CD1      115.0720   22.6270  -10.9800 C.3     7  LEU7        0.0001
      8  CD2      114.0790   24.2320   -9.3240 C.3     7  LEU7        0.0001
      9  N        116.2110   27.9610   -8.6020 N.3    10  SER10      -0.1203
     10  CA       116.4350   28.0360   -7.1580 C.3    10  SER10       0.2005
     11  C        117.4010   29.1260   -6.6800 C.2    10  SER10       0.2461
     12  O        118.5670   29.1470   -7.0600 O.2    10  SER10      -0.2732
     13  CB       116.9140   26.6770   -6.6450 C.3    10  SER10       0.2103
     14  OG       117.4060   26.7890   -5.3220 O.3    10  SER10      -0.2182
     15  N        116.9230   30.0410   -5.8210 N.am   11  PRO11      -0.2718
     16  CA       117.7580   31.1290   -5.2980 C.3    11  PRO11       0.1520
     17  C        119.0330   30.6440   -4.5970 C.2    11  PRO11       0.2440
     18  O        120.1100   31.1920   -4.8190 O.2    11  PRO11      -0.2731
     19  CB       116.8070   31.8690   -4.3610 C.3    11  PRO11       0.0310
     20  CG       115.4940   31.6900   -5.0240 C.3    11  PRO11       0.0237
     21  CD       115.5250   30.2150   -5.3950 C.3    11  PRO11       0.0939
     22  N        118.9240   29.6230   -3.7340 N.am   12  PRO12      -0.2727
     23  CA       120.0890   29.0840   -3.0220 C.3    12  PRO12       0.1402
     24  C        121.1120   28.4960   -4.0000 C.2    12  PRO12       0.2269
     25  O        122.3160   28.6280   -3.8000 O.2    12  PRO12      -0.2865
     26  CB       119.4870   28.0010   -2.1290 C.3    12  PRO12       0.0296
     27  CG       118.1120   28.4850   -1.8740 C.3    12  PRO12       0.0237
     28  CD       117.6870   29.0040   -3.2370 C.3    12  PRO12       0.0939
     29  N        112.9160   19.1280   -8.3020 N.3    34  ILE34      -0.1245
     30  CA       112.2150   19.0260   -7.0380 C.3    34  ILE34       0.1561
     31  C        110.7130   19.0130   -7.2350 C.2    34  ILE34       0.2260
     32  O        109.9630   18.4390   -6.4360 O.2    34  ILE34      -0.2867
     33  CB       112.6530   20.1800   -6.1500 C.3    34  ILE34       0.0252
     34  CG1      114.1340   19.9660   -5.8310 C.3    34  ILE34       0.0019
     35  CG2      111.7730   20.2850   -4.9090 C.3    34  ILE34       0.0019
     36  CD1      114.7260   20.9920   -4.9630 C.3    34  ILE34       0.0001
     37  N        114.3560   14.7050   -5.6920 N.3    39  GLN39      -0.1245
     38  CA       115.1820   14.7460   -4.4960 C.3    39  GLN39       0.1566
     39  C        114.7470   13.7230   -3.4490 C.2    39  GLN39       0.2260
     40  O        115.5020   13.4230   -2.5200 O.2    39  GLN39      -0.2867
     41  CB       115.1610   16.1400   -3.8760 C.3    39  GLN39       0.0367
     42  CG       113.9720   16.4410   -2.9770 C.3    39  GLN39       0.0905
     43  CD       112.6840   16.7050   -3.7330 C.2    39  GLN39       0.2608
     44  OE1      111.8470   17.4860   -3.2820 O.2    39  GLN39      -0.2717
     45  NE2      112.5090   16.0480   -4.8700 N.am   39  GLN39      -0.0878
     46  N        118.1930   15.6010    4.7090 N.3    50  GLN50      -0.1231
     47  CA       117.2220   16.6590    4.4880 C.3    50  GLN50       0.1698
     48  C        116.8290   16.7800    2.9970 C.2    50  GLN50       0.2592
     49  O        116.0220   17.6240    2.6270 O.2    50  GLN50      -0.2718
     50  CB       117.8040   17.9790    5.0250 C.3    50  GLN50       0.0381
     51  CG       116.8480   19.1690    5.0220 C.3    50  GLN50       0.0905
     52  CD       117.3100   20.3210    5.9250 C.2    50  GLN50       0.2608
     53  OE1      116.7020   21.3940    5.9230 O.2    50  GLN50      -0.2717
     54  NE2      118.3740   20.0970    6.7070 N.am   50  GLN50      -0.0878
     55  N        117.3950   15.9240    2.1510 N.am   51  HIS51      -0.1962
     56  CA       117.1130   15.9150    0.7110 C.3    51  HIS51       0.1787
     57  C        116.7750   17.2730    0.0660 C.2    51  HIS51       0.2620
     58  O        115.6930   17.4600   -0.4990 O.2    51  HIS51      -0.2715
     59  CB       116.0000   14.8860    0.3980 C.3    51  HIS51       0.0785
     60  CG       114.6990   15.1480    1.0980 C.ar   51  HIS51       0.0821
     61  ND1      113.8480   16.1710    0.7400 N.ar   51  HIS51      -0.2267
     62  CD2      114.1180   14.5320    2.1560 C.ar   51  HIS51       0.1154
     63  CE1      112.8030   16.1790    1.5470 C.ar   51  HIS51       0.1986
     64  NE2      112.9420   15.1950    2.4150 N.ar   51  HIS51      -0.2212
     65  N        117.7160   18.2120    0.1290 N.am   52  CYS52      -0.1954
     66  CA       117.5050   19.5330   -0.4510 C.3    52  CYS52       0.1843
     67  C        118.6570   19.9670   -1.3440 C.2    52  CYS52       0.2625
     68  O        119.7330   19.3640   -1.3460 O.2    52  CYS52      -0.2714
     69  CB       117.3190   20.5690    0.6590 C.3    52  CYS52       0.0997
     70  SG       118.7220   20.6820    1.8230 S.3    52  CYS52      -0.0797
     71  N        118.4240   21.0310   -2.0990 N.am   53  ILE53      -0.1964
     72  CA       119.4480   21.5730   -2.9700 C.3    53  ILE53       0.1712
     73  C        119.5920   23.0650   -2.6790 C.2    53  ILE53       0.2458
     74  O        118.6240   23.7330   -2.3070 O.2    53  ILE53      -0.2730
     75  CB       119.0920   21.3750   -4.4410 C.3    53  ILE53       0.0289
     76  CG1      117.7510   22.0570   -4.7480 C.3    53  ILE53       0.0022
     77  CG2      119.0670   19.8960   -4.7470 C.3    53  ILE53       0.0023
     78  CD1      117.3730   22.0520   -6.2140 C.3    53  ILE53       0.0001
     79  N        120.7940   23.6190   -2.9070 N.am   54  PRO54      -0.2727
     80  CA       121.9530   22.8900   -3.4210 C.3    54  PRO54       0.1402
     81  C        122.6210   21.8960   -2.4830 C.2    54  PRO54       0.2269
     82  O        122.6320   22.0740   -1.2600 O.2    54  PRO54      -0.2865
     83  CB       122.8980   24.0130   -3.8140 C.3    54  PRO54       0.0296
     84  CG       122.6770   25.0050   -2.7090 C.3    54  PRO54       0.0237
     85  CD       121.1570   25.0130   -2.5760 C.3    54  PRO54       0.0939
     86  N        123.4610   23.5030    2.1070 N.3    65  GLU65      -0.1231
     87  CA       123.1470   24.8140    2.6960 C.3    65  GLU65       0.1699
     88  C        123.9570   25.8110    1.8960 C.2    65  GLU65       0.2593
     89  O        125.1350   26.0180    2.1550 O.2    65  GLU65      -0.2718
     90  CB       123.5370   24.8960    4.1670 C.3    65  GLU65       0.0402
     91  CG       122.5000   24.3370    5.0950 C.3    65  GLU65       0.1161
     92  CD       121.2090   25.1400    5.0730 C.2    65  GLU65       0.3649
     93  OE1      121.2390   26.3130    4.6400 O.co2  65  GLU65      -0.2457
     94  OE2      120.1630   24.6060    5.5050 O.co2  65  GLU65      -0.2457
     95  N        123.3120   26.4050    0.9040 N.am   66  SER66      -0.1938
     96  CA       123.9620   27.3530    0.0190 C.3    66  SER66       0.2055
     97  C        125.0360   28.2300    0.6690 C.2    66  SER66       0.2642
     98  O        126.1600   28.3040    0.1700 O.2    66  SER66      -0.2714
     99  CB       122.9090   28.2330   -0.6800 C.3    66  SER66       0.2130
    100  OG       122.1000   28.9480    0.2470 O.3    66  SER66      -0.2179
    101  N        124.7130   28.8690    1.7870 N.am   67  ARG67      -0.1977
    102  CA       125.6790   29.7540    2.4280 C.3    67  ARG67       0.1597
    103  C        126.8820   29.0390    3.0380 C.2    67  ARG67       0.2287
    104  O        127.9570   29.6260    3.1680 O.2    67  ARG67      -0.2864
    105  CB       124.9680   30.6350    3.4570 C.3    67  ARG67       0.0334
    106  CG       123.7990   31.3960    2.8270 C.3    67  ARG67       0.0492
    107  CD       122.9620   32.1550    3.8350 C.3    67  ARG67       0.2205
    108  NE       121.6960   32.5800    3.2470 N.pl3  67  ARG67      -0.0865
    109  CZ       120.6240   31.7980    3.1230 C.cat  67  ARG67       0.5346
    110  NH1      120.6590   30.5370    3.5580 N.pl3  67  ARG67       0.1354
    111  NH2      119.5200   32.2720    2.5470 N.pl3  67  ARG67       0.1354
    112  N        119.7690   34.1020    5.7930 N.3   102  LEU102     -0.1245
    113  CA       119.1420   32.8090    5.9580 C.3   102  LEU102      0.1561
    114  C        117.9800   32.8310    6.9460 C.2   102  LEU102      0.2260
    115  O        116.8620   32.4040    6.6150 O.2   102  LEU102     -0.2867
    116  CB       120.1620   31.7620    6.4070 C.3   102  LEU102      0.0270
    117  CG       119.5750   30.3840    6.7670 C.3   102  LEU102      0.0019
    118  CD1      118.7580   29.8560    5.6020 C.3   102  LEU102      0.0001
    119  CD2      120.6910   29.4030    7.1150 C.3   102  LEU102      0.0001
    120  N        115.7030   36.3250    3.6780 N.3   106  TYR106     -0.1241
    121  CA       115.2270   35.3140    2.7510 C.3   106  TYR106      0.1605
    122  C        114.0420   34.5220    3.2860 C.2   106  TYR106      0.2264
    123  O        113.0860   34.2400    2.5520 O.2   106  TYR106     -0.2867
    124  CB       116.3500   34.3380    2.4030 C.3   106  TYR106      0.0534
    125  CG       115.9660   33.4220    1.2760 C.ar  106  TYR106     -0.0201
    126  CD1      115.8190   33.9230   -0.0140 C.ar  106  TYR106     -0.0009
    127  CD2      115.6670   32.0790    1.5050 C.ar  106  TYR106     -0.0009
    128  CE1      115.3770   33.1210   -1.0500 C.ar  106  TYR106      0.0417
    129  CE2      115.2210   31.2620    0.4670 C.ar  106  TYR106      0.0417
    130  CZ       115.0800   31.7980   -0.8060 C.ar  106  TYR106      0.1957
    131  OH       114.6530   31.0300   -1.8520 O.3   106  TYR106     -0.2866
    132  N        106.5500   32.0420   -1.7940 N.3   114  PHE114     -0.1241
    133  CA       106.4700   30.6440   -2.1980 C.3   114  PHE114      0.1605
    134  C        105.1400   29.9070   -2.0240 C.2   114  PHE114      0.2264
    135  O        104.8300   29.0090   -2.8050 O.2   114  PHE114     -0.2867
    136  CB       107.6090   29.8520   -1.5420 C.3   114  PHE114      0.0534
    137  CG       108.9690   30.1890   -2.0900 C.ar  114  PHE114     -0.0203
    138  CD1      109.9900   29.2430   -2.0840 C.ar  114  PHE114     -0.0042
    139  CD2      109.2300   31.4470   -2.6230 C.ar  114  PHE114     -0.0042
    140  CE1      111.2500   29.5440   -2.6030 C.ar  114  PHE114     -0.0003
    141  CE2      110.4830   31.7560   -3.1420 C.ar  114  PHE114     -0.0003
    142  CZ       111.4940   30.8010   -3.1320 C.ar  114  PHE114     -0.0000
    143  N        103.5800   27.8920   -4.6460 N.3   118  HIS118     -0.1241
    144  CA       103.5050   26.4450   -4.5110 C.3   118  HIS118      0.1621
    145  C        102.0800   25.9090   -4.4770 C.2   118  HIS118      0.2264
    146  O        101.8160   24.8020   -4.9430 O.2   118  HIS118     -0.2867
    147  CB       104.2480   26.0000   -3.2460 C.3   118  HIS118      0.0745
    148  CG       105.7410   26.0760   -3.3590 C.ar  118  HIS118      0.0817
    149  ND1      106.5790   25.8700   -2.2830 N.ar  118  HIS118     -0.2268
    150  CD2      106.5460   26.3170   -4.4220 C.ar  118  HIS118      0.1154
    151  CE1      107.8360   25.9810   -2.6780 C.ar  118  HIS118      0.1986
    152  NE2      107.8440   26.2520   -3.9720 N.ar  118  HIS118     -0.2212
@<TRIPOS>BOND
     1     7     6    1
     2     3     2    1
     3     3     4    2
     4     6     8    1
     5     6     5    1
     6     2     5    1
     7     2     1    1
     8     9    10    1
     9    29    30    1
    10    31    30    1
    11    31    32    2
    12    10    11    1
    13    10    13    1
    14    12    11    2
    15    30    33    1
    16    11    15   am
    17    13    14    1
    18    78    76    1
    19    33    34    1
    20    33    35    1
    21    34    36    1
    22    15    21    1
    23    15    16    1
    24    37    38    1
    25    21    20    1
    26    16    17    1
    27    16    19    1
    28    20    19    1
    29   146   145    2
    30    45    43   am
    31    18    17    2
    32    76    75    1
    33    77    75    1
    34   143   144    1
    35    17    22   am
    36   144   145    1
    37   144   147    1
    38    38    41    1
    39    38    39    1
    40    75    72    1
    41   150   152   ar
    42   150   148   ar
    43    24    25    2
    44    24    23    1
    45   152   151   ar
    46    41    42    1
    47    83    80    1
    48    83    84    1
    49    22    28    1
    50    22    23    1
    51    43    44    2
    52    43    42    1
    53    39    40    2
    54    80    79    1
    55    80    81    1
    56   148   147    1
    57   148   149   ar
    58    28    27    1
    59   141   142   ar
    60   141   139   ar
    61   142   140   ar
    62    23    26    1
    63    72    73    1
    64    72    71    1
    65    79    73   am
    66    79    85    1
    67   135   134    2
    68    84    85    1
    69    73    74    2
    70   151   149   ar
    71   139   137   ar
    72   140   138   ar
    73    81    82    2
    74   133   134    1
    75   133   132    1
    76   133   136    1
    77    26    27    1
    78    71    67   am
    79   137   138   ar
    80   137   136    1
    81   131   130    1
    82    68    67    2
    83    67    66    1
    84   128   130   ar
    85   128   126   ar
    86   130   129   ar
    87    99    96    1
    88    99   100    1
    89    58    57    2
    90    66    65    1
    91    66    69    1
    92   126   125   ar
    93    96    97    1
    94    96    95    1
    95    57    65   am
    96    57    56    1
    97    98    97    2
    98    59    56    1
    99    59    60    1
   100   129   127   ar
   101    69    70    1
   102    97   101   am
   103    56    55    1
   104    61    60   ar
   105    61    63   ar
   106    95    88   am
   107    60    62   ar
   108   125   127   ar
   109   125   124    1
   110    63    64   ar
   111   101   102    1
   112    88    89    2
   113    88    87    1
   114    86    87    1
   115    55    48   am
   116    62    64   ar
   117   124   121    1
   118   102   103    1
   119   102   105    1
   120   111   109    1
   121   123   122    2
   122    49    48    2
   123    87    90    1
   124   121   122    1
   125   121   120    1
   126   106   105    1
   127   106   107    1
   128    48    47    1
   129   103   104    2
   130   109   108    2
   131   109   110    1
   132   108   107    1
   133    90    91    1
   134    47    46    1
   135    47    50    1
   136    93    92   ar
   137    51    50    1
   138    51    52    1
   139    92    91    1
   140    92    94   ar
   141   118   117    1
   142   112   113    1
   143    53    52    2
   144    52    54   am
   145   113   116    1
   146   113   114    1
   147   116   117    1
   148   115   114    2
   149   117   119    1
