@<TRIPOS>MOLECULE
tmp/1r5cA00.pdb
 81 76 0 0 0
SMALL
GASTEIGER

@<TRIPOS>ATOM
      1  N         23.3590   37.5240   13.6470 N.3    41  LYS41      -0.1245
      2  CA        24.4820   38.1360   12.9560 C.3    41  LYS41       0.1561
      3  C         23.8240   38.7850   11.7370 C.2    41  LYS41       0.2260
      4  O         23.1750   38.1110   10.9440 O.2    41  LYS41      -0.2867
      5  CB        25.5120   37.0870   12.5500 C.3    41  LYS41       0.0271
      6  CG        26.7460   37.6690   11.8920 C.3    41  LYS41       0.0035
      7  CD        27.8620   36.6340   11.8120 C.3    41  LYS41       0.0206
      8  CE        28.9820   37.0800   10.8870 C.3    41  LYS41       0.1093
      9  NZ        30.0480   36.0630   10.7790 N.3    41  LYS41      -0.1314
     10  N         42.3060   46.0640    4.7240 N.3    65  CYS65      -0.1235
     11  CA        41.0190   45.6210    5.2490 C.3    65  CYS65       0.1677
     12  C         40.1990   46.8760    5.5390 C.2    65  CYS65       0.2270
     13  O         40.7580   47.9730    5.6090 O.2    65  CYS65      -0.2867
     14  CB        41.1990   44.8310    6.5490 C.3    65  CYS65       0.0956
     15  SG        42.4080   43.4750    6.4680 S.3    65  CYS65      -0.0801
     16  N         38.8330   47.7130    8.3170 N.3    67  ASN67      -0.1240
     17  CA        39.1760   48.2470    9.6340 C.3    67  ASN67       0.1653
     18  C         40.6000   48.7840    9.7720 C.2    67  ASN67       0.2266
     19  O         41.0320   49.1140   10.8710 O.2    67  ASN67      -0.2867
     20  CB        38.8680   47.2240   10.7430 C.3    67  ASN67       0.1155
     21  CG        39.8130   46.0300   10.7370 C.2    67  ASN67       0.2627
     22  OD1       40.7860   45.9840    9.9750 O.2    67  ASN67      -0.2716
     23  ND2       39.5530   45.0720   11.6360 N.am   67  ASN67      -0.0877
     24  N         43.4160   47.1560    9.0910 N.3    69  GLN69      -0.1245
     25  CA        44.4570   46.1530    9.2090 C.3    69  GLN69       0.1566
     26  C         45.0430   45.9370    7.8300 C.2    69  GLN69       0.2260
     27  O         44.4110   46.2710    6.8190 O.2    69  GLN69      -0.2867
     28  CB        43.9490   44.8700    9.8580 C.3    69  GLN69       0.0367
     29  CG        43.7150   45.0570   11.3400 C.3    69  GLN69       0.0905
     30  CD        43.5030   43.7610   12.0700 C.2    69  GLN69       0.2608
     31  OE1       42.4120   43.4920   12.5650 O.2    69  GLN69      -0.2717
     32  NE2       44.5550   42.9570   12.1710 N.am   69  GLN69      -0.0878
     33  N         46.4080   42.8920    6.6430 N.3    71  ASN71      -0.1240
     34  CA        46.5720   41.4960    6.2770 C.3    71  ASN71       0.1653
     35  C         45.4390   40.9580    5.4080 C.2    71  ASN71       0.2266
     36  O         45.0710   39.7910    5.5250 O.2    71  ASN71      -0.2867
     37  CB        46.7440   40.6260    7.5260 C.3    71  ASN71       0.1155
     38  CG        45.5630   40.7140    8.4590 C.2    71  ASN71       0.2627
     39  OD1       44.9270   41.7590    8.5650 O.2    71  ASN71      -0.2716
     40  ND2       45.2560   39.6140    9.1420 N.am   71  ASN71      -0.0877
     41  N         40.8820   38.2090    5.3990 N.3   109  ALA109     -0.1245
     42  CA        42.1040   38.5070    6.1220 C.3   109  ALA109      0.1562
     43  C         42.7670   37.1230    6.3730 C.2   109  ALA109      0.2260
     44  O         42.0860   36.1480    6.6590 O.2   109  ALA109     -0.2867
     45  CB        41.7840   39.1860    7.4080 C.3   109  ALA109      0.0290
     46  N         41.1630   33.9020    7.9610 N.3   118  VAL118     -0.1231
     47  CA        40.6610   33.9390    9.3340 C.3   118  VAL118      0.1692
     48  C         39.4990   34.9250    9.5470 C.2   118  VAL118      0.2592
     49  O         39.0080   35.0780   10.6600 O.2   118  VAL118     -0.2718
     50  CB        41.7870   34.2790   10.3410 C.3   118  VAL118      0.0266
     51  CG1       42.8540   33.1770   10.3400 C.3   118  VAL118      0.0020
     52  CG2       42.3930   35.6420   10.0180 C.3   118  VAL118      0.0020
     53  N         39.0800   35.5930    8.4820 N.am  119  HIS119     -0.1962
     54  CA        38.0110   36.5740    8.5580 C.3   119  HIS119      0.1787
     55  C         37.5810   36.9190    7.1400 C.2   119  HIS119      0.2620
     56  O         38.4010   36.9160    6.2230 O.2   119  HIS119     -0.2715
     57  CB        38.5440   37.8020    9.3220 C.3   119  HIS119      0.0785
     58  CG        37.9200   39.1120    8.9340 C.ar  119  HIS119      0.0821
     59  ND1       36.7400   39.5710    9.4820 N.ar  119  HIS119     -0.2267
     60  CD2       38.3400   40.0790    8.0840 C.ar  119  HIS119      0.1154
     61  CE1       36.4590   40.7620    8.9850 C.ar  119  HIS119      0.1986
     62  NE2       37.4160   41.0940    8.1350 N.ar  119  HIS119     -0.2212
     63  N         36.2800   37.1130    6.9380 N.am  120  PHE120     -0.1960
     64  CA        35.7710   37.4910    5.6240 C.3   120  PHE120      0.1771
     65  C         35.5980   39.0050    5.7150 C.2   120  PHE120      0.2619
     66  O         34.9120   39.5020    6.6120 O.2   120  PHE120     -0.2715
     67  CB        34.4260   36.8050    5.3340 C.3   120  PHE120      0.0574
     68  CG        33.9130   37.0480    3.9460 C.ar  120  PHE120     -0.0200
     69  CD1       33.2010   38.2110    3.6420 C.ar  120  PHE120     -0.0042
     70  CD2       34.1740   36.1380    2.9300 C.ar  120  PHE120     -0.0042
     71  CE1       32.7590   38.4670    2.3440 C.ar  120  PHE120     -0.0003
     72  CE2       33.7330   36.3820    1.6150 C.ar  120  PHE120     -0.0003
     73  CZ        33.0280   37.5540    1.3260 C.ar  120  PHE120     -0.0000
     74  N         36.2300   39.7360    4.8090 N.am  121  ASP121     -0.1971
     75  CA        36.1650   41.1890    4.8520 C.3   121  ASP121      0.1709
     76  C         35.0910   41.8010    3.9720 C.2   121  ASP121      0.2293
     77  O         34.2970   42.6090    4.4380 O.2   121  ASP121     -0.2864
     78  CB        37.5360   41.8030    4.4930 C.3   121  ASP121      0.1436
     79  CG        37.7310   43.2010    5.0850 C.2   121  ASP121      0.3671
     80  OD1       37.6100   43.3380    6.3080 O.co2 121  ASP121     -0.2456
     81  OD2       38.0140   44.1610    4.3460 O.co2 121  ASP121     -0.2456
@<TRIPOS>BOND
     1    73    72   ar
     2    73    71   ar
     3    72    70   ar
     4    71    69   ar
     5    70    68   ar
     6    69    68   ar
     7    68    67    1
     8    76    77    2
     9    76    75    1
    10    81    79   ar
    11    78    75    1
    12    78    79    1
    13    10    11    1
    14    74    75    1
    15    74    65   am
    16    79    80   ar
    17    11    12    1
    18    11    14    1
    19    67    64    1
    20    41    42    1
    21    35    36    2
    22    35    34    1
    23    12    13    2
    24    64    65    1
    25    64    63    1
    26    65    66    2
    27    42    43    1
    28    42    45    1
    29    56    55    2
    30    34    33    1
    31    34    37    1
    32    43    44    2
    33    15    14    1
    34    27    26    2
    35    63    55   am
    36    55    54    1
    37    37    38    1
    38    26    25    1
    39    46    47    1
    40    60    62   ar
    41    60    58   ar
    42    62    61   ar
    43    16    17    1
    44    38    39    2
    45    38    40   am
    46    53    54    1
    47    53    48   am
    48    54    57    1
    49    58    57    1
    50    58    59   ar
    51    61    59   ar
    52    24    25    1
    53    25    28    1
    54    47    48    1
    55    47    50    1
    56    48    49    2
    57    17    18    1
    58    17    20    1
    59    18    19    2
    60    28    29    1
    61    22    21    2
    62    52    50    1
    63    51    50    1
    64    21    20    1
    65    21    23   am
    66     9     8    1
    67     8     7    1
    68     4     3    2
    69    29    30    1
    70     3     2    1
    71     7     6    1
    72     6     5    1
    73    30    32   am
    74    30    31    2
    75     5     2    1
    76     2     1    1
