@<TRIPOS>MOLECULE
tmp/1r5gA00.pdb
 187 178 0 0 0
SMALL
GASTEIGER

@<TRIPOS>ATOM
      1  N         23.4920   31.0520    9.8010 N.3   110  PHE110     -0.1241
      2  CA        23.5410   31.8680   11.0060 C.3   110  PHE110      0.1605
      3  C         24.9620   31.8550   11.5720 C.2   110  PHE110      0.2264
      4  O         25.8000   31.0610   11.1400 O.2   110  PHE110     -0.2867
      5  CB        22.5220   31.3830   12.0490 C.3   110  PHE110      0.0534
      6  CG        22.6120   29.9220   12.3730 C.ar  110  PHE110     -0.0203
      7  CD1       21.7760   29.0060   11.7390 C.ar  110  PHE110     -0.0042
      8  CD2       23.5150   29.4580   13.3260 C.ar  110  PHE110     -0.0042
      9  CE1       21.8360   27.6460   12.0540 C.ar  110  PHE110     -0.0003
     10  CE2       23.5840   28.1070   13.6410 C.ar  110  PHE110     -0.0003
     11  CZ        22.7440   27.1970   13.0110 C.ar  110  PHE110     -0.0000
     12  N         24.1150   29.1420   24.7520 N.3   121  ALA121     -0.1231
     13  CA        23.9270   29.5150   23.3490 C.3   121  ALA121      0.1694
     14  C         23.9530   31.0070   23.0200 C.2   121  ALA121      0.2592
     15  O         23.8500   31.8570   23.8930 O.2   121  ALA121     -0.2718
     16  CB        22.6220   28.9270   22.8500 C.3   121  ALA121      0.0304
     17  N         24.0720   31.2870   21.7250 N.am  122  HIS122     -0.1976
     18  CA        24.0780   32.6340   21.1760 C.3   122  HIS122      0.1656
     19  C         25.3270   33.4650   21.4120 C.2   122  HIS122      0.2291
     20  O         25.3170   34.6740   21.2130 O.2   122  HIS122     -0.2864
     21  CB        22.8330   33.3890   21.6430 C.3   122  HIS122      0.0771
     22  CG        21.5520   32.7470   21.2020 C.ar  122  HIS122      0.0820
     23  ND1       20.3110   33.1940   21.6040 N.ar  122  HIS122     -0.2267
     24  CD2       21.3200   31.6990   20.3790 C.ar  122  HIS122      0.1154
     25  CE1       19.3710   32.4510   21.0490 C.ar  122  HIS122      0.1986
     26  NE2       19.9570   31.5360   20.2960 N.ar  122  HIS122     -0.2212
     27  N         27.7010   25.5190   17.3900 N.3   142  ASP142     -0.1239
     28  CA        26.4160   25.4670   16.6940 C.3   142  ASP142      0.1674
     29  C         26.5120   26.3600   15.4620 C.2   142  ASP142      0.2266
     30  O         26.5980   27.5890   15.5820 O.2   142  ASP142     -0.2867
     31  CB        25.3090   25.9760   17.6210 C.3   142  ASP142      0.1410
     32  CG        23.9010   25.7040   17.0890 C.2   142  ASP142      0.3668
     33  OD1       23.7100   25.6060   15.8560 O.co2 142  ASP142     -0.2456
     34  OD2       22.9770   25.6070   17.9250 O.co2 142  ASP142     -0.2456
     35  N         20.4770   23.1590   10.5390 N.3   153  ASP153     -0.1239
     36  CA        20.7660   23.6670   11.8750 C.3   153  ASP153      0.1674
     37  C         21.2580   22.4410   12.6250 C.2   153  ASP153      0.2266
     38  O         20.4720   21.5760   12.9750 O.2   153  ASP153     -0.2867
     39  CB        19.4830   24.2000   12.5030 C.3   153  ASP153      0.1410
     40  CG        19.7270   24.9670   13.7730 C.2   153  ASP153      0.3668
     41  OD1       18.7490   25.5130   14.3110 O.co2 153  ASP153     -0.2456
     42  OD2       20.8780   25.0340   14.2330 O.co2 153  ASP153     -0.2456
     43  N         14.5810   26.5620   26.5460 N.3   219  LEU219     -0.1231
     44  CA        15.2560   26.4050   25.2590 C.3   219  LEU219      0.1693
     45  C         14.5340   25.2620   24.5480 C.2   219  LEU219      0.2592
     46  O         13.9840   24.3720   25.2020 O.2   219  LEU219     -0.2718
     47  CB        16.7390   26.0590   25.4430 C.3   219  LEU219      0.0284
     48  CG        17.6580   27.1990   25.8910 C.3   219  LEU219      0.0019
     49  CD1       19.0930   26.6910   26.0360 C.3   219  LEU219      0.0001
     50  CD2       17.6000   28.3290   24.8710 C.3   219  LEU219      0.0001
     51  N         14.5120   25.2800   23.2220 N.am  220  ASN220     -0.1960
     52  CA        13.8280   24.2150   22.5080 C.3   220  ASN220      0.1819
     53  C         14.1450   24.0880   21.0300 C.2   220  ASN220      0.2622
     54  O         14.8440   24.9230   20.4580 O.2   220  ASN220     -0.2715
     55  CB        12.3160   24.3600   22.6750 C.3   220  ASN220      0.1195
     56  CG        11.8750   25.7930   22.7400 C.2   220  ASN220      0.2630
     57  OD1       11.5380   26.3090   23.8150 O.2   220  ASN220     -0.2716
     58  ND2       11.8720   26.4580   21.5960 N.am  220  ASN220     -0.0877
     59  N         13.6200   23.0190   20.4340 N.am  221  GLY221     -0.1940
     60  CA        13.8040   22.7710   19.0160 C.3   221  GLY221      0.2014
     61  C         12.7910   23.6090   18.2660 C.2   221  GLY221      0.2638
     62  O         12.1260   24.4450   18.8700 O.2   221  GLY221     -0.2714
     63  N         12.6280   23.3710   16.9680 N.am  222  HIS222     -0.1973
     64  CA        11.7020   24.1840   16.2000 C.3   222  HIS222      0.1656
     65  C         11.5610   23.7090   14.7620 C.2   222  HIS222      0.2291
     66  O         12.4300   23.0020   14.2420 O.2   222  HIS222     -0.2864
     67  CB        12.2350   25.6090   16.1890 C.3   222  HIS222      0.0771
     68  CG        13.6580   25.6910   15.7320 C.ar  222  HIS222      0.0820
     69  ND1       14.0090   25.8410   14.4060 N.ar  222  HIS222     -0.2267
     70  CD2       14.8220   25.5550   16.4140 C.ar  222  HIS222      0.1154
     71  CE1       15.3240   25.7940   14.2920 C.ar  222  HIS222      0.1986
     72  NE2       15.8410   25.6200   15.4960 N.ar  222  HIS222     -0.2212
     73  N         14.7180   30.2070    9.8890 N.3   229  ILE229     -0.1231
     74  CA        15.2220   29.2690   10.8760 C.3   229  ILE229      0.1692
     75  C         14.1520   28.7710   11.8530 C.2   229  ILE229      0.2592
     76  O         14.1220   27.5860   12.1840 O.2   229  ILE229     -0.2718
     77  CB        16.3920   29.8900   11.6720 C.3   229  ILE229      0.0266
     78  CG1       16.8410   28.9360   12.7770 C.3   229  ILE229      0.0019
     79  CG2       15.9830   31.2290   12.2420 C.3   229  ILE229      0.0020
     80  CD1       17.9870   28.0620   12.3860 C.3   229  ILE229      0.0001
     81  N         13.2870   29.6720   12.3100 N.am  230  HIS230     -0.1976
     82  CA        12.2200   29.3190   13.2450 C.3   230  HIS230      0.1656
     83  C         10.8870   29.5590   12.5440 C.2   230  HIS230      0.2291
     84  O         10.3470   30.6630   12.5840 O.2   230  HIS230     -0.2864
     85  CB        12.3080   30.1930   14.5010 C.3   230  HIS230      0.0771
     86  CG        13.6730   30.2300   15.1140 C.ar  230  HIS230      0.0820
     87  ND1       14.3150   29.1010   15.5760 N.ar  230  HIS230     -0.2267
     88  CD2       14.5230   31.2610   15.3310 C.ar  230  HIS230      0.1154
     89  CE1       15.5020   29.4360   16.0530 C.ar  230  HIS230      0.1986
     90  NE2       15.6520   30.7400   15.9170 N.ar  230  HIS230     -0.2212
     91  N          6.6850   26.5530   14.8820 N.3   233  LYS233     -0.1231
     92  CA         6.4270   25.5360   15.8960 C.3   233  LYS233      0.1693
     93  C          7.6700   25.2970   16.7460 C.2   233  LYS233      0.2592
     94  O          8.7900   25.3490   16.2510 O.2   233  LYS233     -0.2718
     95  CB         5.9900   24.2220   15.2470 C.3   233  LYS233      0.0285
     96  CG         4.5560   24.2200   14.7360 C.3   233  LYS233      0.0035
     97  CD         4.3010   23.0040   13.8610 C.3   233  LYS233      0.0206
     98  CE         2.8230   22.8320   13.5440 C.3   233  LYS233      0.1093
     99  NZ         2.5990   21.6940   12.6140 N.3   233  LYS233     -0.1314
    100  N          7.4630   25.0310   18.0290 N.am  234  THR234     -0.1953
    101  CA         8.5680   24.7830   18.9430 C.3   234  THR234      0.1897
    102  C          8.5580   23.3460   19.4770 C.2   234  THR234      0.2313
    103  O          7.4940   22.7800   19.7480 O.2   234  THR234     -0.2863
    104  CB         8.5080   25.7530   20.1440 C.3   234  THR234      0.1794
    105  OG1        7.3270   25.4990   20.9080 O.3   234  THR234     -0.2208
    106  CG2        8.4710   27.1970   19.6630 C.3   234  THR234      0.0378
    107  N         16.8420   19.7710   18.9160 N.3   255  GLU255     -0.1245
    108  CA        17.9740   20.1180   19.7650 C.3   255  GLU255      0.1567
    109  C         17.6210   20.0880   21.2360 C.2   255  GLU255      0.2260
    110  O         16.5140   20.4530   21.6270 O.2   255  GLU255     -0.2867
    111  CB        18.5100   21.5080   19.3970 C.3   255  GLU255      0.0388
    112  CG        17.5170   22.6550   19.5610 C.3   255  GLU255      0.1160
    113  CD        18.0130   23.9590   18.9450 C.2   255  GLU255      0.3649
    114  OE1       17.2760   24.5370   18.1200 O.co2 255  GLU255     -0.2457
    115  OE2       19.1370   24.4080   19.2830 O.co2 255  GLU255     -0.2457
    116  N         19.4030   20.7610   25.3200 N.3   257  PHE257     -0.1241
    117  CA        20.4920   21.3670   26.0880 C.3   257  PHE257      0.1605
    118  C         20.3860   20.7840   27.4920 C.2   257  PHE257      0.2264
    119  O         19.2890   20.7000   28.0410 O.2   257  PHE257     -0.2867
    120  CB        20.3230   22.8920   26.1770 C.3   257  PHE257      0.0534
    121  CG        20.4680   23.6170   24.8590 C.ar  257  PHE257     -0.0203
    122  CD1       21.6570   24.2630   24.5360 C.ar  257  PHE257     -0.0042
    123  CD2       19.4010   23.7000   23.9700 C.ar  257  PHE257     -0.0042
    124  CE1       21.7860   24.9910   23.3410 C.ar  257  PHE257     -0.0003
    125  CE2       19.5170   24.4230   22.7730 C.ar  257  PHE257     -0.0003
    126  CZ        20.7110   25.0710   22.4610 C.ar  257  PHE257     -0.0000
    127  N         24.5150   38.2020   18.1350 N.3   273  HIS273     -0.1241
    128  CA        23.5380   37.6680   17.1900 C.3   273  HIS273      0.1621
    129  C         22.3490   38.5980   16.9580 C.2   273  HIS273      0.2264
    130  O         21.7860   39.1640   17.9040 O.2   273  HIS273     -0.2867
    131  CB        23.0380   36.3000   17.6640 C.3   273  HIS273      0.0745
    132  CG        24.1060   35.2530   17.7170 C.ar  273  HIS273      0.0817
    133  ND1       23.9350   33.9840   17.2020 N.ar  273  HIS273     -0.2268
    134  CD2       25.3480   35.2730   18.2550 C.ar  273  HIS273      0.1154
    135  CE1       25.0230   33.2710   17.4230 C.ar  273  HIS273      0.1986
    136  NE2       25.8950   34.0300   18.0620 N.ar  273  HIS273     -0.2212
    137  N         18.8600   39.1930   13.9730 N.3   275  MET275     -0.1245
    138  CA        18.0810   38.6470   12.8690 C.3   275  MET275      0.1570
    139  C         16.8210   39.4710   12.6120 C.2   275  MET275      0.2261
    140  O         16.0470   39.7500   13.5220 O.2   275  MET275     -0.2867
    141  CB        17.7050   37.1830   13.1450 C.3   275  MET275      0.0387
    142  CG        16.9030   36.5220   12.0190 C.3   275  MET275      0.0595
    143  SD        16.8210   34.7140   12.1440 S.3   275  MET275     -0.1393
    144  CE        15.8300   34.5100   13.6060 C.3   275  MET275      0.0692
    145  N         19.9570   34.8930   10.1020 N.3   305  ALA305     -0.1245
    146  CA        20.6760   35.5170   11.2040 C.3   305  ALA305      0.1562
    147  C         22.0940   35.9000   10.7980 C.2   305  ALA305      0.2260
    148  O         22.6910   35.2850    9.9150 O.2   305  ALA305     -0.2867
    149  CB        20.7170   34.5820   12.3970 C.3   305  ALA305      0.0290
    150  N         19.5730   38.8570   19.7140 N.3   335  TYR335     -0.1241
    151  CA        19.5690   37.5480   20.3640 C.3   335  TYR335      0.1605
    152  C         20.8390   37.4110   21.1970 C.2   335  TYR335      0.2264
    153  O         21.8130   36.7860   20.7810 O.2   335  TYR335     -0.2867
    154  CB        19.5160   36.4440   19.3050 C.3   335  TYR335      0.0534
    155  CG        18.1960   36.3780   18.5660 C.ar  335  TYR335     -0.0201
    156  CD1       17.1870   35.5080   18.9800 C.ar  335  TYR335     -0.0009
    157  CD2       17.9550   37.1890   17.4570 C.ar  335  TYR335     -0.0009
    158  CE1       15.9680   35.4450   18.3040 C.ar  335  TYR335      0.0417
    159  CE2       16.7410   37.1360   16.7730 C.ar  335  TYR335      0.0417
    160  CZ        15.7550   36.2600   17.2000 C.ar  335  TYR335      0.1957
    161  OH        14.5670   36.1810   16.5110 O.3   335  TYR335     -0.2866
    162  N         22.7180   33.2920   26.0610 N.3   338  LEU338     -0.1245
    163  CA        21.8230   32.7350   27.0740 C.3   338  LEU338      0.1561
    164  C         22.6500   31.8570   28.0030 C.2   338  LEU338      0.2260
    165  O         23.1900   30.8300   27.5840 O.2   338  LEU338     -0.2867
    166  CB        20.7270   31.9230   26.3870 C.3   338  LEU338      0.0270
    167  CG        19.9600   32.7360   25.3350 C.3   338  LEU338      0.0019
    168  CD1       19.0870   31.8140   24.5030 C.3   338  LEU338      0.0001
    169  CD2       19.1230   33.8110   26.0240 C.3   338  LEU338      0.0001
    170  N         25.0850   20.7500   24.4330 N.3   348  GLN348     -0.1245
    171  CA        24.0620   20.7310   23.3930 C.3   348  GLN348      0.1566
    172  C         24.3820   19.8440   22.1950 C.2   348  GLN348      0.2260
    173  O         25.5360   19.7060   21.7810 O.2   348  GLN348     -0.2867
    174  CB        23.7890   22.1510   22.8650 C.3   348  GLN348      0.0367
    175  CG        22.9610   22.1580   21.5610 C.3   348  GLN348      0.0905
    176  CD        23.1610   23.4120   20.7170 C.2   348  GLN348      0.2608
    177  OE1       24.2190   24.0270   20.7550 O.2   348  GLN348     -0.2717
    178  NE2       22.1440   23.7820   19.9390 N.am  348  GLN348     -0.0878
    179  N         22.3800   18.8390   18.3230 N.3   350  GLU350     -0.1245
    180  CA        21.2770   19.2060   17.4490 C.3   350  GLU350      0.1567
    181  C         21.4080   18.6300   16.0430 C.2   350  GLU350      0.2260
    182  O         22.5030   18.5230   15.5040 O.2   350  GLU350     -0.2867
    183  CB        21.2040   20.7370   17.3580 C.3   350  GLU350      0.0388
    184  CG        20.1510   21.2920   16.3990 C.3   350  GLU350      0.1160
    185  CD        20.1310   22.8240   16.3730 C.2   350  GLU350      0.3649
    186  OE1       19.0910   23.4110   16.0130 O.co2 350  GLU350     -0.2457
    187  OE2       21.1660   23.4390   16.7130 O.co2 350  GLU350     -0.2457
@<TRIPOS>BOND
     1     1     2    1
     2    73    74    1
     3   148   147    2
     4   145   146    1
     5    35    36    1
     6   147   146    1
     7    74    77    1
     8    74    75    1
     9     2     3    1
    10     2     5    1
    11     4     3    2
    12   146   149    1
    13    77    79    1
    14    77    78    1
    15     7     9   ar
    16     7     6   ar
    17    75    76    2
    18    75    81   am
    19    36    39    1
    20    36    37    1
    21   142   143    1
    22   142   141    1
    23     5     6    1
    24     9    11   ar
    25   143   144    1
    26    81    82    1
    27     6     8   ar
    28    80    78    1
    29    39    40    1
    30    83    84    2
    31    83    82    1
    32   139   138    1
    33   139   140    2
    34    99    98    1
    35    37    38    2
    36   138   141    1
    37   138   137    1
    38    11    10   ar
    39    82    85    1
    40     8    10   ar
    41    98    97    1
    42    40    42   ar
    43    40    41   ar
    44    97    96    1
    45    66    65    2
    46    71    69   ar
    47    71    72   ar
    48    69    68   ar
    49    85    86    1
    50    96    95    1
    51    65    64    1
    52    91    92    1
    53    86    88   ar
    54    86    87   ar
    55    95    92    1
    56    88    90   ar
    57    29    30    2
    58    29    28    1
    59    72    70   ar
    60   182   181    2
    61    87    89   ar
    62    68    67    1
    63    68    70   ar
    64    33    32   ar
    65    92    93    1
    66    90    89   ar
    67   186   185   ar
    68   181   180    1
    69    67    64    1
    70    64    63    1
    71    94    93    2
    72   185   184    1
    73   185   187   ar
    74   184   183    1
    75   161   160    1
    76    28    27    1
    77    28    31    1
    78    93   100   am
    79   159   160   ar
    80   159   157   ar
    81   129   128    1
    82   129   130    2
    83    63    61   am
    84    32    31    1
    85    32    34   ar
    86   128   131    1
    87   128   127    1
    88   160   158   ar
    89   133   135   ar
    90   133   132   ar
    91   183   180    1
    92   135   136   ar
    93   180   179    1
    94   157   155   ar
    95   131   132    1
    96   132   134   ar
    97   100   101    1
    98   136   134   ar
    99   114   113   ar
   100    61    62    2
   101    61    60    1
   102   158   156   ar
   103   155   156   ar
   104   155   154    1
   105   107   108    1
   106   101   102    1
   107   101   104    1
   108   113   115   ar
   109   113   112    1
   110    60    59    1
   111   154   151    1
   112   111   112    1
   113   111   108    1
   114   102   103    2
   115   106   104    1
   116   150   151    1
   117   108   109    1
   118   178   176   am
   119   104   105    1
   120    26    24   ar
   121    26    25   ar
   122   151   152    1
   123    24    22   ar
   124    59    53   am
   125    54    53    2
   126   176   177    2
   127   176   175    1
   128   153   152    2
   129    53    52    1
   130    25    23   ar
   131    18    19    1
   132    18    21    1
   133    18    17    1
   134    22    23   ar
   135    22    21    1
   136    20    19    2
   137   109   110    2
   138   175   174    1
   139    58    56   am
   140    17    14   am
   141   173   172    2
   142   172   171    1
   143   126   125   ar
   144   126   124   ar
   145    52    55    1
   146    52    51    1
   147    55    56    1
   148    56    57    2
   149   125   123   ar
   150    16    13    1
   151   174   171    1
   152    14    13    1
   153    14    15    2
   154    51    45   am
   155   124   122   ar
   156    13    12    1
   157   171   170    1
   158   123   121   ar
   159   168   167    1
   160   122   121   ar
   161    45    46    2
   162    45    44    1
   163   121   120    1
   164    50    48    1
   165    44    47    1
   166    44    43    1
   167   116   117    1
   168   167   169    1
   169   167   166    1
   170    47    48    1
   171    48    49    1
   172   162   163    1
   173   117   120    1
   174   117   118    1
   175   166   163    1
   176   163   164    1
   177   118   119    2
   178   165   164    2
