@<TRIPOS>MOLECULE
tmp/1r5hA00.pdb
 186 177 0 0 0
SMALL
GASTEIGER

@<TRIPOS>ATOM
      1  N         23.7140   30.8830    9.6740 N.3   110  PHE110     -0.1241
      2  CA        23.8250   31.7520   10.8380 C.3   110  PHE110      0.1605
      3  C         25.2560   31.7430   11.3520 C.2   110  PHE110      0.2264
      4  O         26.0690   30.9230   10.9300 O.2   110  PHE110     -0.2867
      5  CB        22.8550   31.3260   11.9520 C.3   110  PHE110      0.0534
      6  CG        22.8680   29.8530   12.2500 C.ar  110  PHE110     -0.0203
      7  CD1       21.9780   28.9940   11.6060 C.ar  110  PHE110     -0.0042
      8  CD2       23.7650   29.3230   13.1780 C.ar  110  PHE110     -0.0042
      9  CE1       21.9820   27.6270   11.8860 C.ar  110  PHE110     -0.0003
     10  CE2       23.7760   27.9590   13.4630 C.ar  110  PHE110     -0.0003
     11  CZ        22.8830   27.1080   12.8170 C.ar  110  PHE110     -0.0000
     12  N         24.1050   29.0260   24.5400 N.3   121  ALA121     -0.1231
     13  CA        23.8560   29.3660   23.1540 C.3   121  ALA121      0.1694
     14  C         23.9420   30.8400   22.8530 C.2   121  ALA121      0.2592
     15  O         24.0000   31.6760   23.7540 O.2   121  ALA121     -0.2718
     16  CB        22.4810   28.8510   22.7450 C.3   121  ALA121      0.0304
     17  N         23.9550   31.1270   21.5560 N.am  122  HIS122     -0.1976
     18  CA        23.9770   32.4760   21.0230 C.3   122  HIS122      0.1656
     19  C         25.1880   33.3390   21.3060 C.2   122  HIS122      0.2291
     20  O         25.1070   34.5710   21.2770 O.2   122  HIS122     -0.2864
     21  CB        22.6950   33.1870   21.4390 C.3   122  HIS122      0.0771
     22  CG        21.4610   32.4700   20.9930 C.ar  122  HIS122      0.0820
     23  ND1       20.1890   32.8960   21.3090 N.ar  122  HIS122     -0.2267
     24  CD2       21.3080   31.3340   20.2700 C.ar  122  HIS122      0.1154
     25  CE1       19.3060   32.0530   20.8050 C.ar  122  HIS122      0.1986
     26  NE2       19.9590   31.0960   20.1700 N.ar  122  HIS122     -0.2212
     27  N         27.9090   25.4580   17.3330 N.3   142  ASP142     -0.1239
     28  CA        26.6310   25.4300   16.6410 C.3   142  ASP142      0.1674
     29  C         26.6690   26.3330   15.4100 C.2   142  ASP142      0.2266
     30  O         26.5380   27.5530   15.5210 O.2   142  ASP142     -0.2867
     31  CB        25.5440   25.8990   17.6060 C.3   142  ASP142      0.1410
     32  CG        24.1560   25.7160   17.0550 C.2   142  ASP142      0.3668
     33  OD1       24.0160   25.4370   15.8410 O.co2 142  ASP142     -0.2456
     34  OD2       23.2050   25.8620   17.8460 O.co2 142  ASP142     -0.2456
     35  N         20.5720   23.1580   10.5330 N.3   153  ASP153     -0.1239
     36  CA        20.8760   23.6660   11.8730 C.3   153  ASP153      0.1674
     37  C         21.3460   22.4280   12.6290 C.2   153  ASP153      0.2266
     38  O         20.5360   21.5940   13.0340 O.2   153  ASP153     -0.2867
     39  CB        19.6060   24.2380   12.5180 C.3   153  ASP153      0.1410
     40  CG        19.8880   24.9910   13.8040 C.2   153  ASP153      0.3668
     41  OD1       21.0180   24.8900   14.3220 O.co2 153  ASP153     -0.2456
     42  OD2       18.9770   25.6800   14.3020 O.co2 153  ASP153     -0.2456
     43  N         13.6910   26.5660   29.3010 N.3   218  ASN218     -0.1225
     44  CA        13.3120   27.6880   28.4460 C.3   218  ASN218      0.1785
     45  C         14.0790   27.7350   27.1250 C.2   218  ASN218      0.2597
     46  O         14.1500   28.7790   26.4760 O.2   218  ASN218     -0.2718
     47  CB        13.4470   29.0100   29.2060 C.3   218  ASN218      0.1169
     48  CG        14.8420   29.2360   29.7500 C.2   218  ASN218      0.2627
     49  OD1       15.5370   28.2930   30.1280 O.2   218  ASN218     -0.2716
     50  ND2       15.2490   30.4970   29.8140 N.am  218  ASN218     -0.0877
     51  N         14.6650   26.6030   26.7440 N.am  219  LEU219     -0.1966
     52  CA        15.3720   26.4780   25.4690 C.3   219  LEU219      0.1728
     53  C         14.6370   25.3520   24.7620 C.2   219  LEU219      0.2616
     54  O         13.9740   24.5520   25.4220 O.2   219  LEU219     -0.2715
     55  CB        16.8450   26.1120   25.6670 C.3   219  LEU219      0.0311
     56  CG        17.8050   27.2610   25.9840 C.3   219  LEU219      0.0022
     57  CD1       19.2420   26.7320   26.0370 C.3   219  LEU219      0.0001
     58  CD2       17.6840   28.3420   24.9170 C.3   219  LEU219      0.0001
     59  N         14.7500   25.2590   23.4400 N.am  220  ASN220     -0.1958
     60  CA        14.0030   24.2190   22.7430 C.3   220  ASN220      0.1819
     61  C         14.3120   24.0420   21.2620 C.2   220  ASN220      0.2622
     62  O         15.0740   24.7990   20.6700 O.2   220  ASN220     -0.2715
     63  CB        12.5160   24.5200   22.8890 C.3   220  ASN220      0.1195
     64  CG        12.1810   25.9430   22.4810 C.2   220  ASN220      0.2630
     65  OD1       12.4250   26.3460   21.3390 O.2   220  ASN220     -0.2716
     66  ND2       11.6360   26.7200   23.4160 N.am  220  ASN220     -0.0877
     67  N         13.6830   23.0270   20.6750 N.am  221  GLY221     -0.1940
     68  CA        13.8500   22.7480   19.2590 C.3   221  GLY221      0.2014
     69  C         12.9110   23.6390   18.4660 C.2   221  GLY221      0.2638
     70  O         12.2920   24.5260   19.0370 O.2   221  GLY221     -0.2714
     71  N         12.7790   23.4030   17.1640 N.am  222  HIS222     -0.1973
     72  CA        11.9190   24.2490   16.3550 C.3   222  HIS222      0.1656
     73  C         11.8000   23.7950   14.9100 C.2   222  HIS222      0.2291
     74  O         12.6860   23.1240   14.3740 O.2   222  HIS222     -0.2864
     75  CB        12.4740   25.6630   16.3760 C.3   222  HIS222      0.0771
     76  CG        13.8950   25.7430   15.9150 C.ar  222  HIS222      0.0820
     77  ND1       14.2440   25.9420   14.5950 N.ar  222  HIS222     -0.2267
     78  CD2       15.0560   25.5930   16.5920 C.ar  222  HIS222      0.1154
     79  CE1       15.5590   25.9120   14.4810 C.ar  222  HIS222      0.1986
     80  NE2       16.0760   25.7020   15.6780 N.ar  222  HIS222     -0.2212
     81  N         14.9410   30.2380   10.0290 N.3   229  ILE229     -0.1231
     82  CA        15.4570   29.2770   10.9880 C.3   229  ILE229      0.1692
     83  C         14.4250   28.8950   12.0540 C.2   229  ILE229      0.2592
     84  O         14.4610   27.7870   12.5880 O.2   229  ILE229     -0.2718
     85  CB        16.7480   29.8150   11.6450 C.3   229  ILE229      0.0266
     86  CG1       17.3740   28.7350   12.5220 C.3   229  ILE229      0.0019
     87  CG2       16.4490   31.0770   12.4260 C.3   229  ILE229      0.0020
     88  CD1       17.8600   27.5370   11.7390 C.3   229  ILE229      0.0001
     89  N         13.5030   29.8050   12.3500 N.am  230  HIS230     -0.1976
     90  CA        12.4410   29.5490   13.3270 C.3   230  HIS230      0.1656
     91  C         11.0960   29.7900   12.6500 C.2   230  HIS230      0.2291
     92  O         10.5540   30.8960   12.6970 O.2   230  HIS230     -0.2864
     93  CB        12.5880   30.4720   14.5420 C.3   230  HIS230      0.0771
     94  CG        13.7790   30.1610   15.3920 C.ar  230  HIS230      0.0820
     95  ND1       14.2190   31.0000   16.3930 N.ar  230  HIS230     -0.2267
     96  CD2       14.6300   29.1070   15.3860 C.ar  230  HIS230      0.1154
     97  CE1       15.2910   30.4800   16.9640 C.ar  230  HIS230      0.1986
     98  NE2       15.5600   29.3300   16.3710 N.ar  230  HIS230     -0.2212
     99  N          7.4660   24.9940   18.1100 N.3   234  THR234     -0.1218
    100  CA         8.5860   24.7520   19.0030 C.3   234  THR234      0.1862
    101  C          8.6030   23.3200   19.5150 C.2   234  THR234      0.2287
    102  O          7.5500   22.7160   19.7330 O.2   234  THR234     -0.2866
    103  CB         8.5590   25.7130   20.2120 C.3   234  THR234      0.1770
    104  OG1        7.3700   25.4950   20.9740 O.3   234  THR234     -0.2211
    105  CG2        8.5930   27.1620   19.7450 C.3   234  THR234      0.0375
    106  N         16.9870   19.7920   18.9860 N.3   255  GLU255     -0.1245
    107  CA        18.1140   20.1690   19.8250 C.3   255  GLU255      0.1567
    108  C         17.7410   20.1030   21.2890 C.2   255  GLU255      0.2260
    109  O         16.6140   20.4130   21.6770 O.2   255  GLU255     -0.2867
    110  CB        18.6210   21.5790   19.4750 C.3   255  GLU255      0.0388
    111  CG        17.6020   22.7060   19.5910 C.3   255  GLU255      0.1160
    112  CD        18.1280   24.0470   19.0570 C.2   255  GLU255      0.3649
    113  OE1       17.4070   24.6870   18.2640 O.co2 255  GLU255     -0.2457
    114  OE2       19.2500   24.4690   19.4280 O.co2 255  GLU255     -0.2457
    115  N         19.4000   20.6410   25.4800 N.3   257  PHE257     -0.1241
    116  CA        20.4350   21.2500   26.2990 C.3   257  PHE257      0.1605
    117  C         20.3760   20.6560   27.7040 C.2   257  PHE257      0.2264
    118  O         19.3010   20.5680   28.3120 O.2   257  PHE257     -0.2867
    119  CB        20.2280   22.7710   26.3800 C.3   257  PHE257      0.0534
    120  CG        20.3630   23.4870   25.0580 C.ar  257  PHE257     -0.0203
    121  CD1       21.5930   23.9980   24.6500 C.ar  257  PHE257     -0.0042
    122  CD2       19.2550   23.6800   24.2400 C.ar  257  PHE257     -0.0042
    123  CE1       21.7210   24.6950   23.4520 C.ar  257  PHE257     -0.0003
    124  CE2       19.3670   24.3790   23.0330 C.ar  257  PHE257     -0.0003
    125  CZ        20.6050   24.8900   22.6380 C.ar  257  PHE257     -0.0000
    126  N         24.6400   38.2610   18.1180 N.3   273  HIS273     -0.1241
    127  CA        23.6860   37.7360   17.1460 C.3   273  HIS273      0.1621
    128  C         22.5040   38.6640   16.8790 C.2   273  HIS273      0.2264
    129  O         21.9080   39.2360   17.8040 O.2   273  HIS273     -0.2867
    130  CB        23.1490   36.3820   17.6080 C.3   273  HIS273      0.0745
    131  CG        24.1480   35.2720   17.5250 C.ar  273  HIS273      0.0817
    132  ND1       25.3620   35.3080   18.1800 N.ar  273  HIS273     -0.2268
    133  CD2       24.1100   34.0910   16.8630 C.ar  273  HIS273      0.1154
    134  CE1       26.0290   34.1970   17.9230 C.ar  273  HIS273      0.1986
    135  NE2       25.2910   33.4420   17.1260 N.ar  273  HIS273     -0.2212
    136  N         19.0860   39.2170   13.8540 N.3   275  MET275     -0.1245
    137  CA        18.3360   38.6440   12.7510 C.3   275  MET275      0.1570
    138  C         17.0930   39.4680   12.4720 C.2   275  MET275      0.2261
    139  O         16.3670   39.8610   13.3860 O.2   275  MET275     -0.2867
    140  CB        17.9480   37.1890   13.0560 C.3   275  MET275      0.0387
    141  CG        17.1100   36.5240   11.9590 C.3   275  MET275      0.0595
    142  SD        17.0880   34.7130   12.0560 S.3   275  MET275     -0.1393
    143  CE        15.8950   34.4210   13.3830 C.3   275  MET275      0.0692
    144  N         20.1670   34.9350   10.1510 N.3   305  ALA305     -0.1245
    145  CA        20.8700   35.5500   11.2640 C.3   305  ALA305      0.1562
    146  C         22.2940   35.9070   10.8570 C.2   305  ALA305      0.2260
    147  O         22.8760   35.2900    9.9630 O.2   305  ALA305     -0.2867
    148  CB        20.8970   34.6090   12.4560 C.3   305  ALA305      0.0290
    149  N         19.7290   38.6780   19.5350 N.3   335  TYR335     -0.1241
    150  CA        19.7280   37.3780   20.1980 C.3   335  TYR335      0.1605
    151  C         20.9880   37.2800   21.0420 C.2   335  TYR335      0.2264
    152  O         21.9900   36.7100   20.6170 O.2   335  TYR335     -0.2867
    153  CB        19.6990   36.2510   19.1650 C.3   335  TYR335      0.0534
    154  CG        18.3920   36.1720   18.4190 C.ar  335  TYR335     -0.0201
    155  CD1       17.3790   35.3080   18.8380 C.ar  335  TYR335     -0.0009
    156  CD2       18.1490   36.9970   17.3140 C.ar  335  TYR335     -0.0009
    157  CE1       16.1500   35.2650   18.1760 C.ar  335  TYR335      0.0417
    158  CE2       16.9290   36.9630   16.6470 C.ar  335  TYR335      0.0417
    159  CZ        15.9330   36.0970   17.0830 C.ar  335  TYR335      0.1957
    160  OH        14.7200   36.0790   16.4370 O.3   335  TYR335     -0.2866
    161  N         22.6640   33.1380   25.9200 N.3   338  LEU338     -0.1245
    162  CA        21.7640   32.5760   26.9150 C.3   338  LEU338      0.1561
    163  C         22.6060   31.7190   27.8480 C.2   338  LEU338      0.2260
    164  O         23.1710   30.7030   27.4370 O.2   338  LEU338     -0.2867
    165  CB        20.6880   31.7370   26.2220 C.3   338  LEU338      0.0270
    166  CG        19.8960   32.5500   25.1870 C.3   338  LEU338      0.0019
    167  CD1       18.9050   31.6590   24.4630 C.3   338  LEU338      0.0001
    168  CD2       19.1720   33.7090   25.8890 C.3   338  LEU338      0.0001
    169  N         25.0860   20.6870   24.4550 N.3   348  GLN348     -0.1245
    170  CA        24.0790   20.7160   23.3960 C.3   348  GLN348      0.1566
    171  C         24.3940   19.7800   22.2340 C.2   348  GLN348      0.2260
    172  O         25.5510   19.5440   21.9040 O.2   348  GLN348     -0.2867
    173  CB        23.9520   22.1430   22.8380 C.3   348  GLN348      0.0367
    174  CG        23.1830   22.2290   21.5210 C.3   348  GLN348      0.0905
    175  CD        23.4180   23.5320   20.7690 C.2   348  GLN348      0.2608
    176  OE1       24.5360   24.0510   20.7370 O.2   348  GLN348     -0.2717
    177  NE2       22.3680   24.0520   20.1390 N.am  348  GLN348     -0.0878
    178  N         22.4730   18.8530   18.3070 N.3   350  GLU350     -0.1245
    179  CA        21.3730   19.1990   17.4350 C.3   350  GLU350      0.1567
    180  C         21.4760   18.6470   16.0220 C.2   350  GLU350      0.2260
    181  O         22.5590   18.5640   15.4380 O.2   350  GLU350     -0.2867
    182  CB        21.2450   20.7280   17.4080 C.3   350  GLU350      0.0388
    183  CG        20.2050   21.2820   16.4580 C.3   350  GLU350      0.1160
    184  CD        20.1710   22.8030   16.4710 C.2   350  GLU350      0.3649
    185  OE1       21.2430   23.4240   16.6480 O.co2 350  GLU350     -0.2457
    186  OE2       19.0810   23.3780   16.2850 O.co2 350  GLU350     -0.2457
@<TRIPOS>BOND
     1     1     2    1
     2   147   146    2
     3    81    82    1
     4   144   145    1
     5    35    36    1
     6     2     3    1
     7     2     5    1
     8   146   145    1
     9     4     3    2
    10    82    85    1
    11    82    83    1
    12   145   148    1
    13     7     9   ar
    14     7     6   ar
    15    85    87    1
    16    85    86    1
    17    88    86    1
    18    36    39    1
    19    36    37    1
    20     9    11   ar
    21     5     6    1
    22   141   142    1
    23   141   140    1
    24    83    89   am
    25    83    84    2
    26   142   143    1
    27     6     8   ar
    28    89    90    1
    29   138   137    1
    30   138   139    2
    31    39    40    1
    32    37    38    2
    33    91    92    2
    34    91    90    1
    35   137   140    1
    36   137   136    1
    37    11    10   ar
    38     8    10   ar
    39    90    93    1
    40    40    42   ar
    41    40    41   ar
    42    74    73    2
    43    79    77   ar
    44    79    80   ar
    45    93    94    1
    46    77    76   ar
    47    73    72    1
    48    96    94   ar
    49    96    98   ar
    50    94    95   ar
    51    29    30    2
    52    29    28    1
    53   181   180    2
    54    80    78   ar
    55    33    32   ar
    56    76    75    1
    57    76    78   ar
    58   180   179    1
    59   186   184   ar
    60    72    75    1
    61    72    71    1
    62    98    97   ar
    63    95    97   ar
    64   160   159    1
    65   183   184    1
    66   183   182    1
    67   184   185   ar
    68    28    27    1
    69    28    31    1
    70   158   159   ar
    71   158   156   ar
    72   133   135   ar
    73   133   131   ar
    74   128   127    1
    75   128   129    2
    76    32    31    1
    77    32    34   ar
    78   159   157   ar
    79   135   134   ar
    80   127   130    1
    81   127   126    1
    82    71    69   am
    83   156   154   ar
    84   182   179    1
    85   179   178    1
    86   131   130    1
    87   131   132   ar
    88   134   132   ar
    89    99   100    1
    90   157   155   ar
    91   113   112   ar
    92   154   155   ar
    93   154   153    1
    94    69    70    2
    95    69    68    1
    96   106   107    1
    97   100   101    1
    98   100   103    1
    99   112   114   ar
   100   112   111    1
   101   153   150    1
   102    68    67    1
   103   110   111    1
   104   110   107    1
   105   101   102    2
   106   149   150    1
   107   105   103    1
   108   107   108    1
   109   177   175   am
   110    26    24   ar
   111    26    25   ar
   112   150   151    1
   113   103   104    1
   114    24    22   ar
   115   152   151    2
   116    62    61    2
   117    67    61   am
   118   176   175    2
   119   175   174    1
   120    25    23   ar
   121    22    23   ar
   122    22    21    1
   123    18    19    1
   124    18    21    1
   125    18    17    1
   126    61    60    1
   127    20    19    2
   128   108   109    2
   129    65    64    2
   130   174   173    1
   131    17    14   am
   132   172   171    2
   133   171   170    1
   134    64    63    1
   135    64    66   am
   136   125   124   ar
   137   125   123   ar
   138    60    63    1
   139    60    59    1
   140    16    13    1
   141   173   170    1
   142    14    13    1
   143    14    15    2
   144   124   122   ar
   145    13    12    1
   146   170   169    1
   147    59    53   am
   148   123   121   ar
   149   122   120   ar
   150   167   166    1
   151   121   120   ar
   152    53    54    2
   153    53    52    1
   154    58    56    1
   155   120   119    1
   156   166   168    1
   157   166   165    1
   158    52    55    1
   159    52    51    1
   160   115   116    1
   161    55    56    1
   162   161   162    1
   163    56    57    1
   164   165   162    1
   165   116   119    1
   166   116   117    1
   167    46    45    2
   168    51    45   am
   169   162   163    1
   170    45    44    1
   171   164   163    2
   172   117   118    2
   173    44    47    1
   174    44    43    1
   175    47    48    1
   176    48    50   am
   177    48    49    2
