@<TRIPOS>MOLECULE
tmp/1r5kA00.pdb
 213 204 0 0 0
SMALL
GASTEIGER

@<TRIPOS>ATOM
      1  N         -7.7200   52.0720  324.6140 N.3    34  MET34      -0.1245
      2  CA        -7.0720   51.1490  325.5300 C.3    34  MET34       0.1570
      3  C         -5.8010   51.7370  326.1280 C.2    34  MET34       0.2261
      4  O         -5.3990   51.3780  327.2300 O.2    34  MET34      -0.2867
      5  CB        -6.7590   49.8280  324.8280 C.3    34  MET34       0.0387
      6  CG        -7.9580   48.8920  324.6860 C.3    34  MET34       0.0595
      7  SD        -9.0580   48.8870  326.1150 S.3    34  MET34      -0.1393
      8  CE        -8.4150   47.5350  327.0410 C.3    34  MET34       0.0692
      9  N         -6.9140   53.9650  329.1080 N.3    37  LEU37      -0.1231
     10  CA        -7.3810   53.1850  330.2270 C.3    37  LEU37       0.1693
     11  C         -6.2500   52.3740  330.8430 C.2    37  LEU37       0.2592
     12  O         -6.1360   52.2710  332.0580 O.2    37  LEU37      -0.2718
     13  CB        -8.5460   52.3060  329.7890 C.3    37  LEU37       0.0284
     14  CG        -9.6760   53.1160  329.1440 C.3    37  LEU37       0.0019
     15  CD1      -10.7970   52.2100  328.7330 C.3    37  LEU37       0.0001
     16  CD2      -10.2010   54.1790  330.0870 C.3    37  LEU37       0.0001
     17  N         -5.3930   51.8130  330.0190 N.am   38  THR38      -0.1953
     18  CA        -4.3500   50.9600  330.5520 C.3    38  THR38       0.1897
     19  C         -3.3750   51.7020  331.4430 C.2    38  THR38       0.2313
     20  O         -3.0060   51.2240  332.5220 O.2    38  THR38      -0.2863
     21  CB        -3.5900   50.3430  329.4250 C.3    38  THR38       0.1794
     22  OG1       -4.5120   49.6380  328.5880 O.3    38  THR38      -0.2208
     23  CG2       -2.6160   49.2970  329.9650 C.3    38  THR38       0.0378
     24  N         -4.0490   54.6810  332.9210 N.3    40  LEU40      -0.1231
     25  CA        -4.7990   55.0960  334.0920 C.3    40  LEU40       0.1693
     26  C         -4.8590   53.9560  335.1070 C.2    40  LEU40       0.2592
     27  O         -4.6530   54.1380  336.2990 O.2    40  LEU40      -0.2718
     28  CB        -6.2060   55.4820  333.6760 C.3    40  LEU40       0.0284
     29  CG        -7.1030   56.1680  334.6990 C.3    40  LEU40       0.0019
     30  CD1       -6.3260   57.0610  335.6580 C.3    40  LEU40       0.0001
     31  CD2       -8.1050   56.9790  333.9140 C.3    40  LEU40       0.0001
     32  N         -5.1380   52.7630  334.6310 N.am   41  ALA41      -0.1966
     33  CA        -5.2880   51.6450  335.5410 C.3    41  ALA41       0.1728
     34  C         -3.9580   51.2950  336.2050 C.2    41  ALA41       0.2616
     35  O         -3.9250   50.9240  337.3870 O.2    41  ALA41      -0.2715
     36  CB        -5.8710   50.4390  334.8110 C.3    41  ALA41       0.0334
     37  N         -2.8680   51.3960  335.4510 N.am   42  ASP42      -0.1971
     38  CA        -1.5800   50.9900  335.9780 C.3    42  ASP42       0.1709
     39  C         -1.1740   51.9850  337.0610 C.2    42  ASP42       0.2293
     40  O         -0.5920   51.6400  338.0930 O.2    42  ASP42      -0.2864
     41  CB        -0.5340   50.9740  334.8690 C.3    42  ASP42       0.1436
     42  CG        -0.6620   49.7640  333.9180 C.2    42  ASP42       0.3671
     43  OD1        0.1400   49.7270  332.9460 O.co2  42  ASP42      -0.2456
     44  OD2       -1.4950   48.8180  334.0390 O.co2  42  ASP42      -0.2456
     45  N         -3.2600   53.7100  338.7580 N.3    44  GLU44      -0.1245
     46  CA        -4.1310   53.4760  339.8970 C.3    44  GLU44       0.1567
     47  C         -3.7130   52.2720  340.7400 C.2    44  GLU44       0.2260
     48  O         -3.7990   52.3030  341.9630 O.2    44  GLU44      -0.2867
     49  CB        -5.5850   53.3810  339.4440 C.3    44  GLU44       0.0388
     50  CG        -6.1610   54.7780  339.2270 C.3    44  GLU44       0.1160
     51  CD        -7.6560   54.7790  339.0680 C.2    44  GLU44       0.3649
     52  OE1       -8.1180   54.8840  337.9030 O.co2  44  GLU44      -0.2457
     53  OE2       -8.3630   54.6600  340.1020 O.co2  44  GLU44      -0.2457
     54  N         -7.7000   43.6050  342.3640 N.3    74  TRP74      -0.1227
     55  CA        -7.3460   44.9290  341.8380 C.3    74  TRP74       0.1737
     56  C         -8.3410   45.4480  340.8080 C.2    74  TRP74       0.2595
     57  O         -8.7690   46.5790  340.8960 O.2    74  TRP74      -0.2718
     58  CB        -5.8970   44.9850  341.3320 C.3    74  TRP74       0.0564
     59  CG        -5.6600   44.2290  340.0730 C.ar   74  TRP74       0.0003
     60  CD1       -5.1740   42.9740  339.9650 C.ar   74  TRP74       0.0946
     61  CD2       -5.8940   44.6910  338.7430 C.ar   74  TRP74       0.0152
     62  NE1       -5.0900   42.6100  338.6420 N.ar   74  TRP74      -0.2442
     63  CE2       -5.5320   43.6490  337.8680 C.ar   74  TRP74       0.0810
     64  CE3       -6.3830   45.8830  338.1990 C.ar   74  TRP74       0.0012
     65  CZ2       -5.6510   43.7510  336.4860 C.ar   74  TRP74       0.0191
     66  CZ3       -6.4910   45.9900  336.8290 C.ar   74  TRP74       0.0001
     67  CH2       -6.1280   44.9230  335.9820 C.ar   74  TRP74       0.0015
     68  N         -8.7600   44.6330  339.8620 N.am   75  LEU75      -0.1980
     69  CA        -9.8180   45.0690  338.9400 C.3    75  LEU75       0.1596
     70  C        -11.1930   45.3660  339.5830 C.2    75  LEU75       0.2287
     71  O        -11.8610   46.3060  339.1790 O.2    75  LEU75      -0.2864
     72  CB        -9.9790   44.0960  337.7810 C.3    75  LEU75       0.0297
     73  CG       -10.7430   44.6790  336.5790 C.3    75  LEU75       0.0022
     74  CD1      -10.0810   45.9400  336.0710 C.3    75  LEU75       0.0001
     75  CD2      -10.9040   43.6290  335.4440 C.3    75  LEU75       0.0001
     76  N        -10.6960   48.8500  341.1850 N.3    78  LEU78      -0.1231
     77  CA       -10.7730   49.9430  340.2200 C.3    78  LEU78       0.1693
     78  C        -12.2230   50.1420  339.8110 C.2    78  LEU78       0.2591
     79  O        -12.7310   51.2520  339.7360 O.2    78  LEU78      -0.2718
     80  CB        -9.9590   49.6480  338.9560 C.3    78  LEU78       0.0284
     81  CG        -8.4490   49.4420  339.0730 C.3    78  LEU78       0.0019
     82  CD1       -7.8850   49.2450  337.7070 C.3    78  LEU78       0.0001
     83  CD2       -7.7780   50.6000  339.7330 C.3    78  LEU78       0.0001
     84  N        -12.8930   49.0420  339.5250 N.am   79  MET79      -0.1979
     85  CA       -14.2210   49.1300  338.9710 C.3    79  MET79       0.1605
     86  C        -15.2080   49.7540  339.9730 C.2    79  MET79       0.2287
     87  O        -16.0970   50.5200  339.5850 O.2    79  MET79      -0.2864
     88  CB       -14.6900   47.7470  338.4990 C.3    79  MET79       0.0413
     89  CG       -14.2040   47.3730  337.1330 C.3    79  MET79       0.0598
     90  SD       -14.7400   45.7400  336.7110 S.3    79  MET79      -0.1393
     91  CE       -14.3520   45.6520  334.9530 C.3    79  MET79       0.0692
     92  N        -14.7030   53.5070  339.9320 N.3    82  LEU82      -0.1245
     93  CA       -15.1940   54.1330  338.7270 C.3    82  LEU82       0.1561
     94  C        -16.6950   54.2890  338.8630 C.2    82  LEU82       0.2260
     95  O        -17.2740   55.3490  338.6160 O.2    82  LEU82      -0.2867
     96  CB       -14.8840   53.2160  337.5610 C.3    82  LEU82       0.0270
     97  CG       -15.6080   53.5600  336.2840 C.3    82  LEU82       0.0019
     98  CD1      -15.1210   54.9310  335.7930 C.3    82  LEU82       0.0001
     99  CD2      -15.3370   52.4730  335.2680 C.3    82  LEU82       0.0001
    100  N        -17.4760   57.0820  341.4200 N.3    85  ARG85      -0.1245
    101  CA       -17.3280   58.4200  340.8610 C.3    85  ARG85       0.1563
    102  C        -18.3500   58.7310  339.7610 C.2    85  ARG85       0.2260
    103  O        -18.6150   59.8930  339.4620 O.2    85  ARG85      -0.2867
    104  CB       -15.9210   58.5970  340.2820 C.3    85  ARG85       0.0307
    105  CG       -14.7900   58.3760  341.2700 C.3    85  ARG85       0.0489
    106  CD       -13.4050   58.6600  340.6910 C.3    85  ARG85       0.2205
    107  NE       -13.1360   57.9130  339.4590 N.pl3  85  ARG85      -0.0865
    108  CZ       -12.4790   56.7500  339.3970 C.cat  85  ARG85       0.5346
    109  NH1      -12.0090   56.1540  340.4920 N.pl3  85  ARG85       0.1354
    110  NH2      -12.2920   56.1650  338.2280 N.pl3  85  ARG85       0.1354
    111  N        -13.9540   58.2210  334.3040 N.3    95  PHE95      -0.1241
    112  CA       -12.6580   57.5840  334.5640 C.3    95  PHE95       0.1605
    113  C        -11.7090   58.5310  335.2750 C.2    95  PHE95       0.2264
    114  O        -10.8380   58.1100  336.0320 O.2    95  PHE95      -0.2867
    115  CB       -12.0260   57.0510  333.2730 C.3    95  PHE95       0.0534
    116  CG       -12.6790   55.8030  332.7570 C.ar   95  PHE95      -0.0203
    117  CD1      -12.2110   54.5600  333.1270 C.ar   95  PHE95      -0.0042
    118  CD2      -13.7810   55.8810  331.9290 C.ar   95  PHE95      -0.0042
    119  CE1      -12.8100   53.4270  332.6570 C.ar   95  PHE95      -0.0003
    120  CE2      -14.3920   54.7510  331.4650 C.ar   95  PHE95      -0.0003
    121  CZ       -13.9110   53.5230  331.8250 C.ar   95  PHE95      -0.0000
    122  N        -16.2890   45.9510  324.6740 N.3   112  MET112     -0.1245
    123  CA       -16.3050   46.8430  325.8220 C.3   112  MET112      0.1570
    124  C        -17.7050   47.3180  326.2560 C.2   112  MET112      0.2261
    125  O        -18.0140   47.3560  327.4470 O.2   112  MET112     -0.2867
    126  CB       -15.4440   48.0530  325.5220 C.3   112  MET112      0.0387
    127  CG       -15.2760   48.9570  326.7000 C.3   112  MET112      0.0595
    128  SD       -13.5680   49.3890  326.9160 S.3   112  MET112     -0.1393
    129  CE       -13.6850   51.1760  326.4490 C.3   112  MET112      0.0692
    130  N        -19.3930   45.7030  328.9980 N.3   115  ILE115     -0.1231
    131  CA       -18.8510   46.0370  330.2960 C.3   115  ILE115      0.1692
    132  C        -19.2430   47.4320  330.7230 C.2   115  ILE115      0.2592
    133  O        -19.5110   47.6570  331.8860 O.2   115  ILE115     -0.2718
    134  CB       -17.3390   45.9040  330.2570 C.3   115  ILE115      0.0266
    135  CG1      -16.9790   44.4420  330.0250 C.3   115  ILE115      0.0019
    136  CG2      -16.7350   46.3780  331.5580 C.3   115  ILE115      0.0020
    137  CD1      -15.5360   44.2380  329.6340 C.3   115  ILE115      0.0001
    138  N        -19.2730   48.3770  329.7940 N.am  116  PHE116     -0.1976
    139  CA       -19.7030   49.7220  330.1470 C.3   116  PHE116      0.1639
    140  C        -21.1250   49.6720  330.6770 C.2   116  PHE116      0.2290
    141  O        -21.4560   50.3420  331.6540 O.2   116  PHE116     -0.2864
    142  CB       -19.6420   50.6620  328.9520 C.3   116  PHE116      0.0560
    143  CG       -18.3320   51.3450  328.7930 C.ar  116  PHE116     -0.0200
    144  CD1      -17.1570   50.7240  329.2090 C.ar  116  PHE116     -0.0042
    145  CD2      -18.2640   52.6080  328.2360 C.ar  116  PHE116     -0.0042
    146  CE1      -15.9240   51.3540  329.0660 C.ar  116  PHE116     -0.0003
    147  CE2      -17.0500   53.2500  328.0850 C.ar  116  PHE116     -0.0003
    148  CZ       -15.8680   52.6210  328.4980 C.ar  116  PHE116     -0.0000
    149  N        -21.2710   48.4450  334.1410 N.3   119  LEU119     -0.1245
    150  CA       -20.7460   49.4580  335.0370 C.3   119  LEU119      0.1561
    151  C        -21.8020   50.5440  335.2650 C.2   119  LEU119      0.2260
    152  O        -22.1150   50.8820  336.4130 O.2   119  LEU119     -0.2867
    153  CB       -19.4310   50.0280  334.4940 C.3   119  LEU119      0.0270
    154  CG       -18.2690   49.0290  334.5800 C.3   119  LEU119      0.0019
    155  CD1      -17.0760   49.4520  333.7360 C.3   119  LEU119      0.0001
    156  CD2      -17.8570   48.8280  336.0230 C.3   119  LEU119      0.0001
    157  N        -13.9260   41.4020  332.6220 N.3   212  GLY212     -0.1225
    158  CA       -12.9330   42.3780  332.2380 C.3   212  GLY212      0.1811
    159  C        -11.6190   41.6870  331.9590 C.2   212  GLY212      0.2280
    160  O        -10.9710   42.0330  330.9970 O.2   212  GLY212     -0.2866
    161  N        -11.7690   39.8660  328.5500 N.3   215  HIS215     -0.1226
    162  CA       -11.6870   40.7140  327.3710 C.3   215  HIS215      0.1752
    163  C        -10.2410   41.1600  327.2220 C.2   215  HIS215      0.2595
    164  O         -9.6890   41.1560  326.1140 O.2   215  HIS215     -0.2718
    165  CB       -12.6920   41.8770  327.4270 C.3   215  HIS215      0.0759
    166  CG       -14.1150   41.4500  327.1640 C.ar  215  HIS215      0.0818
    167  ND1      -14.7510   40.4620  327.8940 N.ar  215  HIS215     -0.2268
    168  CD2      -15.0140   41.8520  326.2320 C.ar  215  HIS215      0.1154
    169  CE1      -15.9820   40.2920  327.4410 C.ar  215  HIS215      0.1986
    170  NE2      -16.1680   41.1280  326.4360 N.ar  215  HIS215     -0.2212
    171  N         -9.6220   41.4630  328.3610 N.am  216  LEU216     -0.1980
    172  CA        -8.2210   41.8530  328.4270 C.3   216  LEU216      0.1596
    173  C         -7.2980   40.7830  327.8810 C.2   216  LEU216      0.2287
    174  O         -6.3890   41.0520  327.0950 O.2   216  LEU216     -0.2864
    175  CB        -7.8250   42.1070  329.8720 C.3   216  LEU216      0.0297
    176  CG        -7.2730   43.4880  330.2530 C.3   216  LEU216      0.0022
    177  CD1       -7.6510   44.5730  329.2590 C.3   216  LEU216      0.0001
    178  CD2       -7.7750   43.8520  331.6170 C.3   216  LEU216      0.0001
    179  N         -7.6330   40.2280  324.0320 N.3   219  MET219     -0.1245
    180  CA        -7.1460   41.3110  323.1700 C.3   219  MET219      0.1570
    181  C         -5.6290   41.3520  323.0370 C.2   219  MET219      0.2261
    182  O         -5.1190   41.8850  322.0880 O.2   219  MET219     -0.2867
    183  CB        -7.5050   42.6740  323.7630 C.3   219  MET219      0.0387
    184  CG        -8.9410   43.1640  323.6630 C.3   219  MET219      0.0595
    185  SD        -9.0610   44.6980  324.6910 S.3   219  MET219     -0.1393
    186  CE       -10.5370   44.3200  325.7640 C.3   219  MET219      0.0692
    187  N          1.5820   41.2040  331.3700 N.3   226  PRO226     -0.2102
    188  CA         1.0860   42.5690  331.5770 C.3   226  PRO226      0.1504
    189  C          1.6800   43.2810  332.7830 C.2   226  PRO226      0.2576
    190  O          2.1580   42.6360  333.7150 O.2   226  PRO226     -0.2718
    191  CB        -0.4240   42.3720  331.7840 C.3   226  PRO226      0.0282
    192  CG        -0.5740   40.9740  332.2400 C.3   226  PRO226      0.0208
    193  CD         0.5210   40.2050  331.5850 C.3   226  PRO226      0.0893
    194  N          1.6320   44.6090  332.7690 N.am  227  LEU227     -0.1966
    195  CA         2.2370   45.3880  333.8410 C.3   227  LEU227      0.1728
    196  C          1.6730   45.0490  335.2390 C.2   227  LEU227      0.2616
    197  O          2.4210   44.9930  336.2080 O.2   227  LEU227     -0.2715
    198  CB         2.1290   46.8840  333.5430 C.3   227  LEU227      0.0311
    199  CG         2.8660   47.7900  334.5270 C.3   227  LEU227      0.0022
    200  CD1        3.4430   48.9890  333.8370 C.3   227  LEU227      0.0001
    201  CD2        1.9130   48.2420  335.6320 C.3   227  LEU227      0.0001
    202  N          0.3790   44.7880  335.3720 N.am  228  TYR228     -0.1974
    203  CA        -0.0910   44.4080  336.6990 C.3   228  TYR228      0.1639
    204  C          0.6070   43.1430  337.2150 C.2   228  TYR228      0.2290
    205  O          1.1020   43.1220  338.3520 O.2   228  TYR228     -0.2864
    206  CB        -1.6050   44.2960  336.7820 C.3   228  TYR228      0.0560
    207  CG        -2.2100   43.3390  335.8360 C.ar  228  TYR228     -0.0198
    208  CD1       -2.2420   41.9820  336.1170 C.ar  228  TYR228     -0.0009
    209  CD2       -2.8060   43.7840  334.6680 C.ar  228  TYR228     -0.0009
    210  CE1       -2.8410   41.0780  335.2170 C.ar  228  TYR228      0.0417
    211  CE2       -3.4150   42.8960  333.7780 C.ar  228  TYR228      0.0417
    212  CZ        -3.4130   41.5610  334.0610 C.ar  228  TYR228      0.1957
    213  OH        -3.9680   40.7080  333.1770 O.3   228  TYR228     -0.2866
@<TRIPOS>BOND
     1   182   181    2
     2   181   180    1
     3   180   183    1
     4   180   179    1
     5   184   183    1
     6   184   185    1
     7     1     2    1
     8   122   123    1
     9     6     5    1
    10     6     7    1
    11   185   186    1
    12     5     2    1
    13   126   123    1
    14   126   127    1
    15     2     3    1
    16   123   124    1
    17   164   163    2
    18     7     8    1
    19     3     4    2
    20   168   170   ar
    21   168   166   ar
    22   124   125    2
    23   170   169   ar
    24   129   128    1
    25   127   128    1
    26   174   173    2
    27   166   165    1
    28   166   167   ar
    29   163   162    1
    30   163   171   am
    31   162   165    1
    32   162   161    1
    33   169   167   ar
    34   173   172    1
    35   147   145   ar
    36   147   148   ar
    37   145   143   ar
    38   171   172    1
    39   172   175    1
    40   148   146   ar
    41    22    21    1
    42    15    14    1
    43   143   142    1
    44   143   144   ar
    45   142   139    1
    46   130   131    1
    47   146   144   ar
    48     9    10    1
    49    14    13    1
    50    14    16    1
    51   177   176    1
    52    21    23    1
    53    21    18    1
    54   137   135    1
    55    13    10    1
    56   138   139    1
    57   138   132   am
    58   175   176    1
    59    17    18    1
    60    17    11   am
    61   135   134    1
    62   139   140    1
    63    10    11    1
    64   176   178    1
    65   134   131    1
    66   134   136    1
    67   131   132    1
    68    18    19    1
    69   140   141    2
    70   132   133    2
    71    11    12    2
    72   160   159    2
    73   187   188    1
    74   187   193    1
    75    19    20    2
    76   120   121   ar
    77   120   118   ar
    78   188   191    1
    79   188   189    1
    80   193   192    1
    81   191   192    1
    82   121   119   ar
    83   118   116   ar
    84   159   158    1
    85   158   157    1
    86   119   117   ar
    87   116   117   ar
    88   116   115    1
    89   194   189   am
    90   194   195    1
    91   189   190    2
    92    24    25    1
    93    43    42   ar
    94   213   212    1
    95   115   112    1
    96   198   195    1
    97   198   199    1
    98    28    25    1
    99    28    29    1
   100   155   154    1
   101   211   212   ar
   102   211   209   ar
   103   200   199    1
   104   195   196    1
   105    31    29    1
   106    42    44   ar
   107    42    41    1
   108   212   210   ar
   109    25    26    1
   110   149   150    1
   111   111   112    1
   112   153   154    1
   113   153   150    1
   114   199   201    1
   115   112   113    1
   116   154   156    1
   117    32    26   am
   118    32    33    1
   119   209   207   ar
   120    29    30    1
   121    36    33    1
   122    41    38    1
   123    91    90    1
   124   150   151    1
   125    26    27    2
   126   210   208   ar
   127   196   202   am
   128   196   197    2
   129   151   152    2
   130    99    97    1
   131   113   114    2
   132   202   203    1
   133    75    73    1
   134    37    38    1
   135    37    34   am
   136    33    34    1
   137    98    97    1
   138   207   208   ar
   139   207   206    1
   140    38    39    1
   141    67    65   ar
   142    67    66   ar
   143    74    73    1
   144    34    35    2
   145    97    96    1
   146    65    63   ar
   147    73    72    1
   148   203   206    1
   149   203   204    1
   150    90    89    1
   151    66    64   ar
   152    39    40    2
   153    89    88    1
   154   204   205    2
   155    96    93    1
   156    82    81    1
   157    72    69    1
   158    63    62   ar
   159    63    61   ar
   160    52    51   ar
   161    64    61   ar
   162   110   108    1
   163    88    85    1
   164    95    94    2
   165    62    60   ar
   166    93    94    1
   167    93    92    1
   168    61    59   ar
   169    45    46    1
   170    69    70    1
   171    69    68    1
   172    80    81    1
   173    80    77    1
   174    85    84    1
   175    85    86    1
   176    51    50    1
   177    51    53   ar
   178    81    83    1
   179    71    70    2
   180    50    49    1
   181   108   107    2
   182   108   109    1
   183    49    46    1
   184   107   106    1
   185   103   102    2
   186    84    78   am
   187    87    86    2
   188    79    78    2
   189   102   101    1
   190    78    77    1
   191    68    56   am
   192    46    47    1
   193    60    59   ar
   194    59    58    1
   195    77    76    1
   196   104   101    1
   197   104   105    1
   198   106   105    1
   199    47    48    2
   200    56    57    2
   201    56    55    1
   202   101   100    1
   203    58    55    1
   204    55    54    1
