@<TRIPOS>MOLECULE
tmp/1r5nA00.pdb
 148 142 0 0 0
SMALL
GASTEIGER

@<TRIPOS>ATOM
      1  N        103.9490   11.9720   67.5060 N.3    33  VAL33      -0.1231
      2  CA       104.6810   12.6880   66.4570 C.3    33  VAL33       0.1692
      3  C        104.1060   12.5230   65.0460 C.2    33  VAL33       0.2592
      4  O        103.5550   13.4700   64.4830 O.2    33  VAL33      -0.2718
      5  CB       106.2000   12.2630   66.4000 C.3    33  VAL33       0.0266
      6  CG1      107.0210   13.3110   65.6210 C.3    33  VAL33       0.0020
      7  CG2      106.8060   12.0310   67.7920 C.3    33  VAL33       0.0020
      8  N        104.2550   11.3280   64.4830 N.am   34  ASP34      -0.1960
      9  CA       103.8670   11.0490   63.0990 C.3    34  ASP34       0.1840
     10  C        102.7850    9.9710   63.1060 C.2    34  ASP34       0.2622
     11  O        102.8030    9.0430   62.3060 O.2    34  ASP34      -0.2715
     12  CB       105.0880   10.5740   62.2860 C.3    34  ASP34       0.1450
     13  CG       106.1690   11.6380   62.1640 C.2    34  ASP34       0.3671
     14  OD1      105.9890   12.6050   61.3840 O.co2  34  ASP34      -0.2456
     15  OD2      107.2350   11.5770   62.8080 O.co2  34  ASP34      -0.2456
     16  N        101.8440   10.1030   64.0300 N.am   35  ALA35      -0.1963
     17  CA       100.7860    9.1140   64.2010 C.3    35  ALA35       0.1728
     18  C         99.8070    9.0910   63.0150 C.2    35  ALA35       0.2617
     19  O         99.2410    8.0430   62.6880 O.2    35  ALA35      -0.2715
     20  CB       100.0420    9.3840   65.5120 C.3    35  ALA35       0.0334
     21  N         99.6180   10.2470   62.3780 N.am   36  GLY36      -0.1940
     22  CA        98.6860   10.3910   61.2730 C.3    36  GLY36       0.2014
     23  C         97.6380   11.4770   61.4700 C.2    36  GLY36       0.2639
     24  O         96.7780   11.6610   60.6210 O.2    36  GLY36      -0.2714
     25  N         97.7060   12.1940   62.5880 N.am   37  LYS37      -0.1963
     26  CA        96.7310   13.2440   62.9270 C.3    37  LYS37       0.1728
     27  C         96.4050   14.1750   61.7720 C.2    37  LYS37       0.2617
     28  O         95.2470   14.3600   61.4170 O.2    37  LYS37      -0.2715
     29  CB        97.2330   14.0760   64.1100 C.3    37  LYS37       0.0311
     30  CG        97.5660   13.2400   65.3470 C.3    37  LYS37       0.0038
     31  CD        97.5660   14.0690   66.6230 C.3    37  LYS37       0.0206
     32  CE        98.6620   15.1300   66.6320 C.3    37  LYS37       0.1093
     33  NZ       100.0310   14.5390   66.4750 N.3    37  LYS37      -0.1314
     34  N         97.4360   14.7440   61.1770 N.am   38  SER38      -0.1936
     35  CA        97.2610   15.7540   60.1480 C.3    38  SER38       0.2055
     36  C         96.6250   15.1440   58.9200 C.2    38  SER38       0.2643
     37  O         95.7070   15.7230   58.3670 O.2    38  SER38      -0.2714
     38  CB        98.6020   16.3950   59.7770 C.3    38  SER38       0.2130
     39  OG        98.5420   16.9700   58.4830 O.3    38  SER38      -0.2179
     40  N         97.1180   13.9870   58.4830 N.am   39  THR39      -0.1950
     41  CA        96.5420   13.3400   57.3030 C.3    39  THR39       0.1897
     42  C         95.0810   12.9990   57.5660 C.2    39  THR39       0.2313
     43  O         94.2090   13.2950   56.7460 O.2    39  THR39      -0.2863
     44  CB        97.3110   12.0520   56.9170 C.3    39  THR39       0.1794
     45  OG1       98.7010   12.3420   56.7610 O.3    39  THR39      -0.2208
     46  CG2       96.9050   11.5550   55.5460 C.3    39  THR39       0.0378
     47  N         97.5950   19.9000   55.1230 N.3    60  GLU60      -0.1245
     48  CA        98.3950   18.8090   55.6610 C.3    60  GLU60       0.1567
     49  C         99.8900   19.1330   55.7460 C.2    60  GLU60       0.2260
     50  O        100.5510   18.7130   56.6900 O.2    60  GLU60      -0.2867
     51  CB        98.1510   17.5240   54.8610 C.3    60  GLU60       0.0388
     52  CG        96.7700   16.9290   55.1040 C.3    60  GLU60       0.1160
     53  CD        96.4350   15.7840   54.1660 C.2    60  GLU60       0.3649
     54  OE1       96.9730   14.6730   54.3390 O.co2  60  GLU60      -0.2457
     55  OE2       95.6210   15.9880   53.2480 O.co2  60  GLU60      -0.2457
     56  N        102.3510   20.4460   59.5520 N.3    64  LYS64      -0.1245
     57  CA       103.7250   19.9680   59.7760 C.3    64  LYS64       0.1561
     58  C        104.7130   21.1310   59.8460 C.2    64  LYS64       0.2260
     59  O        104.4240   22.1730   60.4370 O.2    64  LYS64      -0.2867
     60  CB       104.1680   19.0020   58.6600 C.3    64  LYS64       0.0271
     61  CG       103.1940   17.8640   58.3410 C.3    64  LYS64       0.0035
     62  CD       102.6970   17.1270   59.5850 C.3    64  LYS64       0.0206
     63  CE       103.7700   16.2540   60.2120 C.3    64  LYS64       0.1093
     64  NZ       104.0850   15.0770   59.3690 N.3    64  LYS64      -0.1314
     65  N        101.9290    0.8160   62.5190 N.3    96  ARG96      -0.1245
     66  CA       103.1890    0.4130   61.9190 C.3    96  ARG96       0.1563
     67  C        104.1370   -0.1860   62.9510 C.2    96  ARG96       0.2260
     68  O        104.2370    0.3060   64.0730 O.2    96  ARG96      -0.2867
     69  CB       103.8680    1.5940   61.2390 C.3    96  ARG96       0.0307
     70  CG       105.0860    1.1790   60.4360 C.3    96  ARG96       0.0489
     71  CD       106.0170    2.2940   60.1080 C.3    96  ARG96       0.2205
     72  NE       105.3380    3.3040   59.3020 N.pl3  96  ARG96      -0.0865
     73  CZ       105.8790    3.9590   58.2790 C.cat  96  ARG96       0.5346
     74  NH1      107.1390    3.7310   57.9080 N.pl3  96  ARG96       0.1354
     75  NH2      105.1500    4.8620   57.6220 N.pl3  96  ARG96       0.1354
     76  N        106.8420    2.0030   65.0500 N.3    99  GLU99      -0.1245
     77  CA       106.1790    3.2400   65.4880 C.3    99  GLU99       0.1567
     78  C        105.2360    2.9640   66.6660 C.2    99  GLU99       0.2260
     79  O        105.2940    3.6450   67.6850 O.2    99  GLU99      -0.2867
     80  CB       105.4000    3.8990   64.3360 C.3    99  GLU99       0.0388
     81  CG       106.0210    5.1750   63.7810 C.3    99  GLU99       0.1160
     82  CD       105.4520    5.5650   62.4140 C.2    99  GLU99       0.3649
     83  OE1      105.9580    6.5380   61.7950 O.co2  99  GLU99      -0.2457
     84  OE2      104.4970    4.8990   61.9510 O.co2  99  GLU99      -0.2457
     85  N         95.5110    3.6720   63.2320 N.3   130  ASN130     -0.1225
     86  CA        95.8560    4.1680   61.8990 C.3   130  ASN130      0.1785
     87  C         96.9810    3.3910   61.1520 C.2   130  ASN130      0.2597
     88  O         97.7380    2.6340   61.7540 O.2   130  ASN130     -0.2718
     89  CB        96.1950    5.6520   62.0110 C.3   130  ASN130      0.1169
     90  CG        96.2580    6.3380   60.6720 C.2   130  ASN130      0.2627
     91  OD1       96.9560    7.3550   60.5050 O.2   130  ASN130     -0.2716
     92  ND2       95.5280    5.7930   59.7010 N.am  130  ASN130     -0.0877
     93  N         97.0290    3.5650   59.8300 N.am  131  LYS131     -0.1980
     94  CA        98.0480    2.9930   58.9490 C.3   131  LYS131      0.1596
     95  C         97.9050    1.4950   58.7500 C.2   131  LYS131      0.2287
     96  O         98.8970    0.7980   58.6330 O.2   131  LYS131     -0.2864
     97  CB        99.4600    3.3320   59.4220 C.3   131  LYS131      0.0298
     98  CG        99.7060    4.8110   59.6880 C.3   131  LYS131      0.0038
     99  CD       101.1960    5.1280   59.7460 C.3   131  LYS131      0.0206
    100  CE       101.4380    6.5830   60.1350 C.3   131  LYS131      0.1093
    101  NZ       102.8130    6.8660   60.6480 N.3   131  LYS131     -0.1314
    102  N         97.1100    0.1610   56.1450 N.3   133  ASP133     -0.1225
    103  CA        97.5260   -0.0750   54.7710 C.3   133  ASP133      0.1805
    104  C         99.0590   -0.1810   54.6290 C.2   133  ASP133      0.2598
    105  O         99.5490   -0.8860   53.7430 O.2   133  ASP133     -0.2718
    106  CB        96.9920    1.0460   53.8750 C.3   133  ASP133      0.1424
    107  CG        97.5720    2.4120   54.2300 C.2   133  ASP133      0.3668
    108  OD1       97.1340    3.0010   55.2460 O.co2 133  ASP133     -0.2456
    109  OD2       98.4620    2.9780   53.5540 O.co2 133  ASP133     -0.2456
    110  N         99.7950    0.5260   55.4910 N.am  134  GLU134     -0.1966
    111  CA       101.2650    0.6130   55.4350 C.3   134  GLU134      0.1718
    112  C        101.9150   -0.7780   55.4000 C.2   134  GLU134      0.2458
    113  O        101.7420   -1.5300   56.3420 O.2   134  GLU134     -0.2730
    114  CB       101.7860    1.3990   56.6640 C.3   134  GLU134      0.0428
    115  CG       103.0990    2.1440   56.4690 C.3   134  GLU134      0.1163
    116  CD       104.2910    1.2190   56.2670 C.2   134  GLU134      0.3649
    117  OE1      104.5930    0.4090   57.1710 O.co2 134  GLU134     -0.2457
    118  OE2      104.9330    1.3080   55.1970 O.co2 134  GLU134     -0.2457
    119  N        102.6770   -1.1080   54.3470 N.am  135  PRO135     -0.2727
    120  CA       103.2690   -2.4500   54.1390 C.3   135  PRO135      0.1402
    121  C        103.5770   -3.3450   55.3560 C.2   135  PRO135      0.2269
    122  O        103.2820   -4.5460   55.2940 O.2   135  PRO135     -0.2865
    123  CB       104.5640   -2.1180   53.4100 C.3   135  PRO135      0.0296
    124  CG       104.1620   -0.9590   52.5160 C.3   135  PRO135      0.0237
    125  CD       103.0500   -0.2040   53.2400 C.3   135  PRO135      0.0939
    126  N         92.7200    3.8850   57.5130 N.3   173  SER173     -0.1202
    127  CA        93.8430    4.3430   56.7120 C.3   173  SER173      0.2020
    128  C         93.5900    5.7960   56.3800 C.2   173  SER173      0.2619
    129  O         92.8440    6.1110   55.4680 O.2   173  SER173     -0.2717
    130  CB        93.9720    3.5120   55.4290 C.3   173  SER173      0.2103
    131  OG        95.0260    3.9890   54.6040 O.3   173  SER173     -0.2182
    132  N         94.2020    6.6830   57.1450 N.am  174  ALA174     -0.1965
    133  CA        94.0690    8.1220   56.9330 C.3   174  ALA174      0.1728
    134  C         94.5660    8.5440   55.5490 C.2   174  ALA174      0.2616
    135  O         94.1120    9.5500   54.9960 O.2   174  ALA174     -0.2715
    136  CB        94.8420    8.8830   58.0220 C.3   174  ALA174      0.0334
    137  N         95.5100    7.7730   55.0100 N.am  175  TYR175     -0.1974
    138  CA        96.1490    8.0840   53.7320 C.3   175  TYR175      0.1639
    139  C         95.2340    7.7140   52.5760 C.2   175  TYR175      0.2290
    140  O         94.9840    8.5440   51.7100 O.2   175  TYR175     -0.2864
    141  CB        97.5080    7.3730   53.6190 C.3   175  TYR175      0.0560
    142  CG        98.2220    7.5410   52.2900 C.ar  175  TYR175     -0.0198
    143  CD1       98.8440    8.7410   51.9550 C.ar  175  TYR175     -0.0009
    144  CD2       98.2970    6.4870   51.3830 C.ar  175  TYR175     -0.0009
    145  CE1       99.5050    8.8930   50.7460 C.ar  175  TYR175      0.0417
    146  CE2       98.9550    6.6270   50.1710 C.ar  175  TYR175      0.0417
    147  CZ        99.5530    7.8310   49.8560 C.ar  175  TYR175      0.1957
    148  OH       100.2030    7.9650   48.6480 O.3   175  TYR175     -0.2866
@<TRIPOS>BOND
     1   148   147    1
     2   147   146   ar
     3   147   145   ar
     4   146   144   ar
     5   145   143   ar
     6   144   142   ar
     7   140   139    2
     8   143   142   ar
     9   142   141    1
    10   124   125    1
    11   124   123    1
    12   139   138    1
    13   125   119    1
    14    55    53   ar
    15   123   120    1
    16   109   107   ar
    17   141   138    1
    18   138   137    1
    19   105   104    2
    20   106   107    1
    21   106   103    1
    22   120   119    1
    23   120   121    1
    24    53    54   ar
    25    53    52    1
    26   107   108   ar
    27   119   112   am
    28   131   130    1
    29   104   103    1
    30   104   110   am
    31   103   102    1
    32    51    52    1
    33    51    48    1
    34   135   134    2
    35   137   134   am
    36    47    48    1
    37   118   116   ar
    38   122   121    2
    39   112   111    1
    40   112   113    2
    41   130   127    1
    42   111   110    1
    43   111   114    1
    44   129   128    2
    45    46    44    1
    46   134   133    1
    47    48    49    1
    48    49    50    2
    49   116   115    1
    50   116   117   ar
    51   128   127    1
    52   128   132   am
    53   115   114    1
    54   127   126    1
    55    43    42    2
    56    45    44    1
    57    44    41    1
    58   133   132    1
    59   133   136    1
    60    41    42    1
    61    41    40    1
    62    75    73    1
    63    74    73    1
    64    73    72    2
    65    61    60    1
    66    61    62    1
    67    37    36    2
    68    39    38    1
    69    40    36   am
    70    96    95    2
    71    60    57    1
    72    95    94    1
    73    36    35    1
    74    94    97    1
    75    94    93    1
    76    72    71    1
    77    64    63    1
    78    97    98    1
    79    56    57    1
    80    62    63    1
    81    98    99    1
    82    92    90   am
    83    99   100    1
    84    57    58    1
    85    38    35    1
    86    93    87   am
    87    58    59    2
    88    71    70    1
    89   100   101    1
    90    35    34    1
    91    70    69    1
    92    91    90    2
    93    24    23    2
    94    90    89    1
    95    87    88    2
    96    87    86    1
    97    34    27   am
    98    69    66    1
    99    22    23    1
   100    22    21    1
   101    14    13   ar
   102    28    27    2
   103    23    25   am
   104    27    26    1
   105    83    82   ar
   106    86    89    1
   107    86    85    1
   108    66    65    1
   109    66    67    1
   110    84    82   ar
   111    13    12    1
   112    13    15   ar
   113    12     9    1
   114    11    10    2
   115    21    18   am
   116    82    81    1
   117    25    26    1
   118    19    18    2
   119    26    29    1
   120    67    68    2
   121    18    17    1
   122     9    10    1
   123     9     8    1
   124    10    16   am
   125    81    80    1
   126    16    17    1
   127    29    30    1
   128    17    20    1
   129    80    77    1
   130     4     3    2
   131     8     3   am
   132     3     2    1
   133    76    77    1
   134    30    31    1
   135    77    78    1
   136     6     5    1
   137     5     2    1
   138     5     7    1
   139     2     1    1
   140    33    32    1
   141    31    32    1
   142    78    79    2
