@<TRIPOS>MOLECULE
tmp/1r5oA00.pdb
 148 143 0 0 0
SMALL
GASTEIGER

@<TRIPOS>ATOM
      1  N         99.9980   11.2850   68.0770 N.3    32  HIS32      -0.1226
      2  CA       101.4380   11.2390   68.1180 C.3    32  HIS32       0.1752
      3  C        102.0160   12.1910   67.0720 C.2    32  HIS32       0.2596
      4  O        101.2820   12.8730   66.3450 O.2    32  HIS32      -0.2718
      5  CB       101.9090    9.7900   67.8860 C.3    32  HIS32       0.0759
      6  CG       100.8980    8.7510   68.2900 C.ar   32  HIS32       0.0818
      7  ND1      100.2730    8.7580   69.5210 N.ar   32  HIS32      -0.2268
      8  CD2      100.3880    7.6890   67.6150 C.ar   32  HIS32       0.1154
      9  CE1       99.4300    7.7440   69.5900 C.ar   32  HIS32       0.1986
     10  NE2       99.4770    7.0820   68.4460 N.ar   32  HIS32      -0.2212
     11  N        103.3440   12.2210   67.0130 N.am   33  VAL33      -0.1966
     12  CA       104.0920   13.1050   66.1160 C.3    33  VAL33       0.1727
     13  C        104.3440   12.3870   64.7880 C.2    33  VAL33       0.2616
     14  O        105.4410   12.4760   64.2210 O.2    33  VAL33      -0.2715
     15  CB       105.4570   13.5070   66.7590 C.3    33  VAL33       0.0290
     16  CG1      105.2500   14.4820   67.9290 C.3    33  VAL33       0.0023
     17  CG2      106.2510   12.2490   67.2180 C.3    33  VAL33       0.0023
     18  N        103.3200   11.6860   64.2940 N.am   34  ASP34      -0.1957
     19  CA       103.4750   10.6610   63.2500 C.3    34  ASP34       0.1840
     20  C        102.2470    9.7570   63.1280 C.2    34  ASP34       0.2622
     21  O        102.2480    8.7690   62.3850 O.2    34  ASP34      -0.2715
     22  CB       104.7020    9.7640   63.5320 C.3    34  ASP34       0.1450
     23  CG       104.5600    8.9380   64.8250 C.2    34  ASP34       0.3671
     24  OD1      104.2960    9.5160   65.9110 O.co2  34  ASP34      -0.2456
     25  OD2      104.7140    7.6970   64.8380 O.co2  34  ASP34      -0.2456
     26  N        101.2020   10.0870   63.8730 N.am   35  ALA35      -0.1963
     27  CA       100.0210    9.2520   63.9330 C.3    35  ALA35       0.1728
     28  C         99.2540    9.2710   62.6140 C.2    35  ALA35       0.2617
     29  O         98.6950    8.2560   62.1880 O.2    35  ALA35      -0.2715
     30  CB        99.1360    9.7300   65.0720 C.3    35  ALA35       0.0334
     31  N         99.2600   10.4270   61.9610 N.am   36  GLY36      -0.1940
     32  CA        98.3680   10.6740   60.8510 C.3    36  GLY36       0.2014
     33  C         97.2540   11.5890   61.3080 C.2    36  GLY36       0.2639
     34  O         96.2670   11.7750   60.6130 O.2    36  GLY36      -0.2714
     35  N         97.4140   12.1580   62.4970 N.am   37  LYS37      -0.1963
     36  CA        96.4090   13.0270   63.1020 C.3    37  LYS37       0.1728
     37  C         96.0210   14.1670   62.1560 C.2    37  LYS37       0.2617
     38  O         94.8600   14.5640   62.0740 O.2    37  LYS37      -0.2715
     39  CB        96.9600   13.5520   64.4340 C.3    37  LYS37       0.0311
     40  CG        96.2900   14.7620   65.0210 C.3    37  LYS37       0.0038
     41  CD        96.6300   14.8700   66.5210 C.3    37  LYS37       0.0206
     42  CE        98.0630   15.3270   66.8080 C.3    37  LYS37       0.1093
     43  NZ        98.9860   14.1750   67.0080 N.3    37  LYS37      -0.1314
     44  N         96.9990   14.6840   61.4270 N.am   38  SER38      -0.1936
     45  CA        96.7350   15.7700   60.5070 C.3    38  SER38       0.2055
     46  C         96.2510   15.2700   59.1680 C.2    38  SER38       0.2643
     47  O         95.3140   15.8280   58.6260 O.2    38  SER38      -0.2714
     48  CB        97.9720   16.6180   60.2820 C.3    38  SER38       0.2130
     49  OG        97.6360   17.6800   59.4050 O.3    38  SER38      -0.2179
     50  N         96.8980   14.2570   58.6040 N.am   39  THR39      -0.1950
     51  CA        96.4440   13.7690   57.3100 C.3    39  THR39       0.1897
     52  C         95.0190   13.2860   57.4280 C.2    39  THR39       0.2313
     53  O         94.2180   13.5740   56.5570 O.2    39  THR39      -0.2863
     54  CB        97.3620   12.6880   56.6810 C.3    39  THR39       0.1794
     55  OG1       96.5880   11.7930   55.8690 O.3    39  THR39      -0.2208
     56  CG2       97.9430   11.7960   57.6970 C.3    39  THR39       0.0378
     57  N         98.1480   18.9170   54.8460 N.3    60  GLU60      -0.1245
     58  CA        99.0480   17.7540   54.9200 C.3    60  GLU60       0.1567
     59  C        100.5460   18.1530   55.0760 C.2    60  GLU60       0.2260
     60  O        101.2680   17.5420   55.8700 O.2    60  GLU60      -0.2867
     61  CB        98.8440   16.8720   53.6680 C.3    60  GLU60       0.0388
     62  CG        99.4120   15.4550   53.7250 C.3    60  GLU60       0.1160
     63  CD        98.8360   14.5480   52.6280 C.2    60  GLU60       0.3649
     64  OE1       99.4310   14.4260   51.5230 O.co2  60  GLU60      -0.2457
     65  OE2       97.7650   13.9450   52.8760 O.co2  60  GLU60      -0.2457
     66  N        101.7870   20.7200   58.2320 N.3    63  ALA63      -0.1245
     67  CA       102.1370   19.9980   59.4570 C.3    63  ALA63       0.1562
     68  C        103.6640   19.9100   59.5580 C.2    63  ALA63       0.2260
     69  O        104.2860   18.9100   59.1710 O.2    63  ALA63      -0.2867
     70  CB       101.5100   18.6110   59.4550 C.3    63  ALA63       0.0290
     71  N        101.7320    0.8460   61.8630 N.3    97  ARG97      -0.1245
     72  CA       103.0200    0.5340   61.2610 C.3    97  ARG97       0.1563
     73  C        103.9640   -0.0100   62.3120 C.2    97  ARG97       0.2260
     74  O        104.0800    0.5690   63.3860 O.2    97  ARG97      -0.2867
     75  CB       103.6450    1.7720   60.6450 C.3    97  ARG97       0.0307
     76  CG       104.8260    1.4460   59.7590 C.3    97  ARG97       0.0489
     77  CD       105.9960    2.3860   59.9250 C.3    97  ARG97       0.2205
     78  NE       105.7150    3.6900   59.3410 N.pl3  97  ARG97      -0.0865
     79  CZ       106.6190    4.6390   59.1550 C.cat  97  ARG97       0.5346
     80  NH1      107.8870    4.4610   59.5220 N.pl3  97  ARG97       0.1354
     81  NH2      106.2460    5.7830   58.6040 N.pl3  97  ARG97       0.1354
     82  N        106.5580    2.4090   64.7580 N.3   100  GLU100     -0.1245
     83  CA       105.8210    3.5480   65.3290 C.3   100  GLU100      0.1567
     84  C        104.8630    3.1220   66.4480 C.2   100  GLU100      0.2260
     85  O        104.8670    3.7010   67.5370 O.2   100  GLU100     -0.2867
     86  CB       105.0270    4.2800   64.2450 C.3   100  GLU100      0.0388
     87  CG       105.8560    5.2090   63.3770 C.3   100  GLU100      0.1160
     88  CD       105.0590    5.8860   62.2600 C.2   100  GLU100      0.3649
     89  OE1      105.6590    6.7040   61.5020 O.co2 100  GLU100     -0.2457
     90  OE2      103.8420    5.6070   62.1350 O.co2 100  GLU100     -0.2457
     91  N         95.2800    3.9220   62.7120 N.3   131  ASN131     -0.1225
     92  CA        95.5880    4.3530   61.3580 C.3   131  ASN131      0.1785
     93  C         96.6550    3.4940   60.6480 C.2   131  ASN131      0.2597
     94  O         97.2570    2.6080   61.2540 O.2   131  ASN131     -0.2718
     95  CB        96.0250    5.8210   61.4040 C.3   131  ASN131      0.1169
     96  CG        95.8280    6.5460   60.0850 C.2   131  ASN131      0.2627
     97  OD1       96.3950    7.6370   59.8740 O.2   131  ASN131     -0.2716
     98  ND2       95.0310    5.9510   59.1810 N.am  131  ASN131     -0.0877
     99  N         96.8390    3.7390   59.3480 N.am  132  LYS132     -0.1980
    100  CA        97.9170    3.1600   58.5390 C.3   132  LYS132      0.1596
    101  C         97.7810    1.6580   58.3280 C.2   132  LYS132      0.2287
    102  O         98.7230    0.9060   58.5000 O.2   132  LYS132     -0.2864
    103  CB        99.2740    3.4900   59.1510 C.3   132  LYS132      0.0298
    104  CG        99.5120    4.9770   59.3730 C.3   132  LYS132      0.0038
    105  CD       101.0220    5.2600   59.5050 C.3   132  LYS132      0.0206
    106  CE       101.2900    6.7100   59.8140 C.3   132  LYS132      0.1093
    107  NZ       102.7020    7.0140   60.0440 N.3   132  LYS132     -0.1314
    108  N         97.0780    0.4050   55.4360 N.3   134  ASP134     -0.1225
    109  CA        97.5010    0.1730   54.0620 C.3   134  ASP134      0.1805
    110  C         98.9900   -0.1480   54.0170 C.2   134  ASP134      0.2598
    111  O         99.4450   -0.8850   53.1420 O.2   134  ASP134     -0.2718
    112  CB        97.1950    1.3920   53.1820 C.3   134  ASP134      0.1424
    113  CG        97.7870    2.7020   53.7330 C.2   134  ASP134      0.3668
    114  OD1       97.2050    3.2670   54.6940 O.co2 134  ASP134     -0.2456
    115  OD2       98.8220    3.2440   53.2660 O.co2 134  ASP134     -0.2456
    116  N         99.7420    0.4010   54.9750 N.am  135  GLU135     -0.1966
    117  CA       101.2030    0.2490   55.0510 C.3   135  GLU135      0.1718
    118  C        101.6450   -1.1630   54.6890 C.2   135  GLU135      0.2458
    119  O        100.9780   -2.1240   55.0740 O.2   135  GLU135     -0.2730
    120  CB       101.6980    0.5760   56.4600 C.3   135  GLU135      0.0428
    121  CG       101.9690    2.0430   56.6860 C.3   135  GLU135      0.1163
    122  CD       103.3930    2.4090   56.3690 C.2   135  GLU135      0.3649
    123  OE1      103.9800    1.7720   55.4770 O.co2 135  GLU135     -0.2457
    124  OE2      103.9260    3.3360   57.0140 O.co2 135  GLU135     -0.2457
    125  N        102.7440   -1.2890   53.9350 N.am  136  PRO136     -0.2727
    126  CA       103.3570   -2.5940   53.6660 C.3   136  PRO136      0.1402
    127  C        103.5620   -3.4430   54.9220 C.2   136  PRO136      0.2269
    128  O        103.3400   -4.6500   54.8580 O.2   136  PRO136     -0.2865
    129  CB       104.6980   -2.2190   53.0360 C.3   136  PRO136      0.0296
    130  CG       104.4130   -0.9270   52.3480 C.3   136  PRO136      0.0237
    131  CD       103.4690   -0.2090   53.2430 C.3   136  PRO136      0.0939
    132  N         94.1140    7.0040   56.6620 N.3   175  ALA175     -0.1231
    133  CA        93.9420    8.4200   56.3990 C.3   175  ALA175      0.1694
    134  C         94.5040    8.8370   55.0340 C.2   175  ALA175      0.2592
    135  O         93.9650    9.7430   54.3930 O.2   175  ALA175     -0.2718
    136  CB        94.5820    9.2350   57.5100 C.3   175  ALA175      0.0304
    137  N         95.5800    8.1850   54.5890 N.am  176  TYR176     -0.1976
    138  CA        96.2460    8.5620   53.3290 C.3   176  TYR176      0.1639
    139  C         95.4000    8.1730   52.1350 C.2   176  TYR176      0.2290
    140  O         95.0940    9.0020   51.2960 O.2   176  TYR176     -0.2864
    141  CB        97.6090    7.8720   53.2140 C.3   176  TYR176      0.0560
    142  CG        98.3970    8.2170   51.9620 C.ar  176  TYR176     -0.0198
    143  CD1       99.1140    9.4000   51.8840 C.ar  176  TYR176     -0.0009
    144  CD2       98.4390    7.3450   50.8650 C.ar  176  TYR176     -0.0009
    145  CE1       99.8400    9.7140   50.7510 C.ar  176  TYR176      0.0417
    146  CE2       99.1660    7.6550   49.7280 C.ar  176  TYR176      0.0417
    147  CZ        99.8600    8.8410   49.6800 C.ar  176  TYR176      0.1957
    148  OH       100.5830    9.1780   48.5700 O.3   176  TYR176     -0.2866
@<TRIPOS>BOND
     1   148   147    1
     2   147   146   ar
     3   147   145   ar
     4   146   144   ar
     5   145   143   ar
     6   144   142   ar
     7   140   139    2
     8    64    63   ar
     9   143   142   ar
    10   142   141    1
    11   139   138    1
    12   130   129    1
    13   130   131    1
    14    63    65   ar
    15    63    62    1
    16   129   126    1
    17   111   110    2
    18   112   113    1
    19   112   109    1
    20   141   138    1
    21   131   125    1
    22   115   113   ar
    23   138   137    1
    24   126   125    1
    25   126   127    1
    26    61    62    1
    27    61    58    1
    28   113   114   ar
    29   125   118   am
    30   110   109    1
    31   110   116   am
    32   109   108    1
    33   135   134    2
    34   137   134   am
    35   118   117    1
    36   118   119    2
    37    57    58    1
    38   128   127    2
    39    58    59    1
    40   116   117    1
    41   134   133    1
    42   117   120    1
    43    59    60    2
    44   123   122   ar
    45    55    54    1
    46   122   121    1
    47   122   124   ar
    48   133   132    1
    49   133   136    1
    50   120   121    1
    51    53    52    2
    52    54    51    1
    53    54    56    1
    54    51    52    1
    55    51    50    1
    56    66    67    1
    57   101   102    2
    58   101   100    1
    59   100   103    1
    60   100    99    1
    61    81    79    1
    62    50    46   am
    63    47    46    2
    64   103   104    1
    65    79    78    2
    66    79    80    1
    67    46    45    1
    68    69    68    2
    69    98    96   am
    70    78    77    1
    71    99    93   am
    72   104   105    1
    73    49    48    1
    74    70    67    1
    75    67    68    1
    76   105   106    1
    77    76    77    1
    78    76    75    1
    79   106   107    1
    80    97    96    2
    81    96    95    1
    82    48    45    1
    83    45    44    1
    84    34    33    2
    85    75    72    1
    86    93    94    2
    87    93    92    1
    88    32    33    1
    89    32    31    1
    90    72    71    1
    91    72    73    1
    92    33    35   am
    93    92    95    1
    94    92    91    1
    95    44    37   am
    96    89    88   ar
    97    31    28   am
    98    38    37    2
    99    90    88   ar
   100    37    36    1
   101    29    28    2
   102    88    87    1
   103    73    74    2
   104    21    20    2
   105    35    36    1
   106    28    27    1
   107    36    39    1
   108    20    19    1
   109    20    26   am
   110    19    22    1
   111    19    18    1
   112    87    86    1
   113    22    23    1
   114    26    27    1
   115    27    30    1
   116    14    13    2
   117    86    83    1
   118    18    13   am
   119    39    40    1
   120    82    83    1
   121    13    12    1
   122    23    25   ar
   123    23    24   ar
   124    40    41    1
   125    83    84    1
   126    12    15    1
   127    12    11    1
   128     4     3    2
   129    84    85    2
   130    41    42    1
   131    15    17    1
   132    15    16    1
   133    42    43    1
   134    11     3   am
   135     3     2    1
   136     8     6   ar
   137     8    10   ar
   138     5     2    1
   139     5     6    1
   140     1     2    1
   141     6     7   ar
   142    10     9   ar
   143     7     9   ar
