@<TRIPOS>MOLECULE
tmp/1r66A01.pdb
 200 195 0 0 0
SMALL
GASTEIGER

@<TRIPOS>ATOM
      1  N         69.6270   14.9140   36.3470 N.3    88  HIS88      -0.1226
      2  CA        70.2830   16.1000   35.8480 C.3    88  HIS88       0.1752
      3  C         71.7610   15.9180   35.4630 C.2    88  HIS88       0.2596
      4  O         72.6150   15.5430   36.2950 O.2    88  HIS88      -0.2718
      5  CB        70.1200   17.2510   36.8570 C.3    88  HIS88       0.0759
      6  CG        70.3270   18.5830   36.1850 C.ar   88  HIS88       0.0818
      7  ND1       71.0990   19.5720   36.7530 N.ar   88  HIS88      -0.2268
      8  CD2       69.8920   19.0510   34.9720 C.ar   88  HIS88       0.1154
      9  CE1       71.0770   20.6140   35.9110 C.ar   88  HIS88       0.1986
     10  NE2       70.3650   20.3360   34.8240 N.ar   88  HIS88      -0.2212
     11  N         72.0810   16.2430   34.1840 N.am   89  VAL89      -0.1966
     12  CA        73.4480   16.1130   33.7120 C.3    89  VAL89       0.1727
     13  C         74.5100   16.8300   34.5640 C.2    89  VAL89       0.2616
     14  O         75.5610   16.2630   34.8890 O.2    89  VAL89      -0.2715
     15  CB        73.5410   16.4820   32.2380 C.3    89  VAL89       0.0290
     16  CG1       75.0190   16.4200   31.8290 C.3    89  VAL89       0.0023
     17  CG2       72.6700   15.5330   31.4120 C.3    89  VAL89       0.0023
     18  N         74.2340   18.1010   34.9250 N.am   90  ASP90      -0.1971
     19  CA        75.1780   18.8630   35.7460 C.3    90  ASP90       0.1709
     20  C         75.4760   18.1960   37.0930 C.2    90  ASP90       0.2293
     21  O         76.6200   18.2200   37.5820 O.2    90  ASP90      -0.2864
     22  CB        74.7980   20.3760   35.8540 C.3    90  ASP90       0.1436
     23  CG        74.9680   21.0980   34.5230 C.2    90  ASP90       0.3671
     24  OD1       75.9240   20.9340   33.7900 O.co2  90  ASP90      -0.2456
     25  OD2       73.9820   21.8940   34.1770 O.co2  90  ASP90      -0.2456
     26  N         69.8180   10.8890   25.3600 N.3   129  GLU129     -0.1245
     27  CA        71.2420   11.1560   25.6110 C.3   129  GLU129      0.1567
     28  C         72.1370    9.9200   25.5290 C.2   129  GLU129      0.2260
     29  O         73.3800   10.0730   25.4880 O.2   129  GLU129     -0.2867
     30  CB        71.3900   11.8920   26.9470 C.3   129  GLU129      0.0388
     31  CG        70.3060   13.0100   26.9950 C.3   129  GLU129      0.1160
     32  CD        70.5750   14.0640   28.0190 C.2   129  GLU129      0.3649
     33  OE1       71.5970   14.1110   28.6860 O.co2 129  GLU129     -0.2457
     34  OE2       69.5790   14.9100   28.1590 O.co2 129  GLU129     -0.2457
     35  N         75.5130   10.8470   33.5830 N.3   151  TYR151     -0.1241
     36  CA        74.0780   10.6440   33.5980 C.3   151  TYR151      0.1605
     37  C         73.7180    9.7420   32.4070 C.2   151  TYR151      0.2264
     38  O         73.0570    8.7360   32.5560 O.2   151  TYR151     -0.2867
     39  CB        73.2880   11.9800   33.5100 C.3   151  TYR151      0.0534
     40  CG        71.8360   11.7860   33.0520 C.ar  151  TYR151     -0.0201
     41  CD1       70.8920   11.1700   33.8670 C.ar  151  TYR151     -0.0009
     42  CD2       71.4080   12.2900   31.8280 C.ar  151  TYR151     -0.0009
     43  CE1       69.5660   11.0320   33.4640 C.ar  151  TYR151      0.0417
     44  CE2       70.0970   12.1330   31.3850 C.ar  151  TYR151      0.0417
     45  CZ        69.1650   11.5400   32.2350 C.ar  151  TYR151      0.1957
     46  OH        67.8510   11.4080   31.8000 O.3   151  TYR151     -0.2866
     47  N         64.2050   16.2470   25.0970 N.3   180  ASN180     -0.1240
     48  CA        63.9450   17.1120   26.2510 C.3   180  ASN180      0.1653
     49  C         62.4940   17.4340   26.3930 C.2   180  ASN180      0.2266
     50  O         61.8320   17.8000   25.4350 O.2   180  ASN180     -0.2867
     51  CB        64.7020   18.4550   26.1640 C.3   180  ASN180      0.1155
     52  CG        66.1890   18.2650   26.2440 C.2   180  ASN180      0.2627
     53  OD1       66.7990   17.5070   25.4520 O.2   180  ASN180     -0.2716
     54  ND2       66.8070   18.9490   27.1790 N.am  180  ASN180     -0.0877
     55  N         65.9300   23.6110   38.0780 N.3   189  GLU189     -0.1231
     56  CA        67.3470   23.4840   37.7420 C.3   189  GLU189      0.1699
     57  C         67.5020   23.2260   36.2460 C.2   189  GLU189      0.2592
     58  O         68.6120   23.3440   35.6830 O.2   189  GLU189     -0.2718
     59  CB        67.9830   22.2900   38.5000 C.3   189  GLU189      0.0402
     60  CG        67.4280   20.9070   38.0720 C.3   189  GLU189      0.1161
     61  CD        68.0540   19.7530   38.8130 C.2   189  GLU189      0.3649
     62  OE1       68.9520   19.9160   39.6170 O.co2 189  GLU189     -0.2457
     63  OE2       67.5200   18.5820   38.5330 O.co2 189  GLU189     -0.2457
     64  N         66.3980   22.8170   35.5840 N.am  190  LYS190     -0.1966
     65  CA        66.3820   22.5210   34.1420 C.3   190  LYS190      0.1728
     66  C         66.2960   23.8260   33.3470 C.2   190  LYS190      0.2616
     67  O         65.7120   24.8170   33.7950 O.2   190  LYS190     -0.2715
     68  CB        65.2740   21.5510   33.7150 C.3   190  LYS190      0.0311
     69  CG        65.3150   20.1810   34.4190 C.3   190  LYS190      0.0038
     70  CD        66.6480   19.3940   34.2970 C.3   190  LYS190      0.0206
     71  CE        66.8080   18.5370   33.0440 C.3   190  LYS190      0.1093
     72  NZ        67.8010   17.4500   33.1250 N.3   190  LYS190     -0.1314
     73  N         66.9100   23.8370   32.1600 N.am  191  LEU191     -0.1977
     74  CA        66.9890   25.0560   31.3440 C.3   191  LEU191      0.1596
     75  C         65.7770   25.9650   31.2950 C.2   191  LEU191      0.2287
     76  O         65.8380   27.1480   31.6460 O.2   191  LEU191     -0.2864
     77  CB        67.3770   24.6990   29.9030 C.3   191  LEU191      0.0297
     78  CG        67.4970   25.9640   29.0450 C.3   191  LEU191      0.0022
     79  CD1       68.7510   26.7170   29.4850 C.3   191  LEU191      0.0001
     80  CD2       67.7400   25.5250   27.6090 C.3   191  LEU191      0.0001
     81  N         64.5230   27.1560   34.6890 N.3   194  LEU194     -0.1231
     82  CA        65.5810   27.9710   35.2770 C.3   194  LEU194      0.1693
     83  C         65.6010   29.3440   34.6560 C.2   194  LEU194      0.2592
     84  O         65.7210   30.3620   35.3420 O.2   194  LEU194     -0.2718
     85  CB        66.9790   27.4020   35.0130 C.3   194  LEU194      0.0284
     86  CG        68.0590   28.3680   35.4890 C.3   194  LEU194      0.0019
     87  CD1       68.0670   28.4160   37.0250 C.3   194  LEU194      0.0001
     88  CD2       69.3830   27.7830   35.0300 C.3   194  LEU194      0.0001
     89  N         65.5100   29.4120   33.3400 N.am  195  PHE195     -0.1976
     90  CA        65.5680   30.7000   32.7370 C.3   195  PHE195      0.1639
     91  C         64.2900   31.4730   32.9900 C.2   195  PHE195      0.2290
     92  O         64.3430   32.6470   33.2910 O.2   195  PHE195     -0.2864
     93  CB        65.8810   30.5330   31.2500 C.3   195  PHE195      0.0560
     94  CG        67.3530   30.3410   30.9180 C.ar  195  PHE195     -0.0200
     95  CD1       68.2790   29.9120   31.8730 C.ar  195  PHE195     -0.0042
     96  CD2       67.7990   30.6250   29.6220 C.ar  195  PHE195     -0.0042
     97  CE1       69.6220   29.7560   31.5190 C.ar  195  PHE195     -0.0003
     98  CE2       69.1320   30.4440   29.2360 C.ar  195  PHE195     -0.0003
     99  CZ        70.0430   30.0230   30.2090 C.ar  195  PHE195     -0.0000
    100  N         72.3290   32.1540   32.6710 N.3   206  PRO206     -0.2102
    101  CA        73.6210   31.5400   32.4120 C.3   206  PRO206      0.1504
    102  C         73.6340   30.6790   31.1800 C.2   206  PRO206      0.2576
    103  O         73.3430   29.4990   31.2480 O.2   206  PRO206     -0.2718
    104  CB        73.8850   30.6600   33.6390 C.3   206  PRO206      0.0282
    105  CG        72.5390   30.3800   34.2810 C.3   206  PRO206      0.0208
    106  CD        71.6070   31.4890   33.7840 C.3   206  PRO206      0.0893
    107  N         73.9650   31.2440   30.0430 N.am  207  LEU207     -0.1966
    108  CA        73.9570   30.4470   28.8390 C.3   207  LEU207      0.1728
    109  C         75.3210   29.8050   28.5950 C.2   207  LEU207      0.2616
    110  O         76.3210   30.4690   28.4230 O.2   207  LEU207     -0.2715
    111  CB        73.5400   31.4090   27.7230 C.3   207  LEU207      0.0311
    112  CG        73.4980   30.7420   26.3480 C.3   207  LEU207      0.0022
    113  CD1       72.3790   29.6990   26.2790 C.3   207  LEU207      0.0001
    114  CD2       73.2490   31.8150   25.2950 C.3   207  LEU207      0.0001
    115  N         75.3930   28.4850   28.6010 N.am  208  TYR208     -0.1974
    116  CA        76.6810   27.8160   28.4560 C.3   208  TYR208      0.1639
    117  C         77.3560   28.0850   27.1470 C.2   208  TYR208      0.2290
    118  O         76.7160   28.0100   26.0950 O.2   208  TYR208     -0.2864
    119  CB        76.5510   26.2900   28.5830 C.3   208  TYR208      0.0560
    120  CG        76.0820   25.7970   29.9390 C.ar  208  TYR208     -0.0198
    121  CD1       76.0920   26.6050   31.0760 C.ar  208  TYR208     -0.0009
    122  CD2       75.5880   24.4980   30.0520 C.ar  208  TYR208     -0.0009
    123  CE1       75.6130   26.1110   32.2900 C.ar  208  TYR208      0.0417
    124  CE2       75.1130   23.9830   31.2530 C.ar  208  TYR208      0.0417
    125  CZ        75.1530   24.7940   32.3790 C.ar  208  TYR208      0.1957
    126  OH        74.6760   24.2560   33.5460 O.3   208  TYR208     -0.2866
    127  N         74.5400   24.7060   21.1290 N.3   213  ASN213     -0.1240
    128  CA        74.0350   23.3470   21.3130 C.3   213  ASN213      0.1653
    129  C         72.5680   23.2220   20.9330 C.2   213  ASN213      0.2266
    130  O         71.7830   24.1360   21.1570 O.2   213  ASN213     -0.2867
    131  CB        74.2680   22.8370   22.7290 C.3   213  ASN213      0.1155
    132  CG        75.6910   23.1110   23.1450 C.2   213  ASN213      0.2627
    133  OD1       76.0640   24.2840   23.3440 O.2   213  ASN213     -0.2716
    134  ND2       76.4880   22.0530   23.2830 N.am  213  ASN213     -0.0877
    135  N         68.8620   21.0450   20.9760 N.3   215  ARG215     -0.1245
    136  CA        68.0510   20.0730   21.6720 C.3   215  ARG215      0.1563
    137  C         66.7050   20.0350   20.9870 C.2   215  ARG215      0.2260
    138  O         66.3350   21.0330   20.3810 O.2   215  ARG215     -0.2867
    139  CB        67.8740   20.4190   23.1630 C.3   215  ARG215      0.0307
    140  CG        69.1620   20.5260   24.0120 C.3   215  ARG215      0.0489
    141  CD        69.7920   19.1520   24.1540 C.3   215  ARG215      0.2205
    142  NE        70.9630   19.0780   25.0350 N.pl3 215  ARG215     -0.0865
    143  CZ        72.1990   19.1420   24.5150 C.cat 215  ARG215      0.5346
    144  NH1       72.4680   19.3560   23.2370 N.pl3 215  ARG215      0.1354
    145  NH2       73.2300   19.0160   25.3270 N.pl3 215  ARG215      0.1354
    146  N         62.6000   19.5520   21.6610 N.3   217  TRP217     -0.1241
    147  CA        61.7280   19.7530   22.7960 C.3   217  TRP217      0.1605
    148  C         60.3630   19.2110   22.5580 C.2   217  TRP217      0.2264
    149  O         59.7320   19.4970   21.5240 O.2   217  TRP217     -0.2867
    150  CB        61.5600   21.2700   22.9410 C.3   217  TRP217      0.0550
    151  CG        62.8720   21.8900   23.3190 C.ar  217  TRP217      0.0003
    152  CD1       63.8220   22.4100   22.4800 C.ar  217  TRP217      0.0946
    153  CD2       63.4490   21.8920   24.6330 C.ar  217  TRP217      0.0152
    154  NE1       64.9330   22.7900   23.1960 N.ar  217  TRP217     -0.2442
    155  CE2       64.7440   22.4830   24.5280 C.ar  217  TRP217      0.0810
    156  CE3       62.9840   21.4600   25.9020 C.ar  217  TRP217      0.0012
    157  CZ2       65.5840   22.6460   25.6680 C.ar  217  TRP217      0.0191
    158  CZ3       63.8110   21.6130   27.0240 C.ar  217  TRP217      0.0001
    159  CH2       65.0870   22.2020   26.9120 C.ar  217  TRP217      0.0015
    160  N         70.1860   26.4610   21.8400 N.3   250  ASN250     -0.1240
    161  CA        69.8380   27.0630   23.1190 C.3   250  ASN250      0.1653
    162  C         69.7150   28.5860   22.9670 C.2   250  ASN250      0.2266
    163  O         68.9550   29.2380   23.6760 O.2   250  ASN250     -0.2867
    164  CB        70.9260   26.7100   24.1360 C.3   250  ASN250      0.1155
    165  CG        70.8800   25.2270   24.4700 C.2   250  ASN250      0.2627
    166  OD1       69.8550   24.5240   24.3870 O.2   250  ASN250     -0.2716
    167  ND2       72.0390   24.7360   24.8780 N.am  250  ASN250     -0.0877
    168  N         79.6910   23.5520   29.8020 N.3   274  ARG274     -0.1245
    169  CA        79.5800   22.2770   30.5330 C.3   274  ARG274      0.1563
    170  C         80.6240   21.2640   29.9980 C.2   274  ARG274      0.2260
    171  O         80.8120   21.1070   28.7580 O.2   274  ARG274     -0.2867
    172  CB        78.1720   21.7270   30.2650 C.3   274  ARG274      0.0307
    173  CG        77.9740   20.2940   30.7410 C.3   274  ARG274      0.0489
    174  CD        76.5740   19.8740   30.2750 C.3   274  ARG274      0.2205
    175  NE        75.4810   20.4160   31.0750 N.pl3 274  ARG274     -0.0865
    176  CZ        74.2270   20.1930   30.7260 C.cat 274  ARG274      0.5346
    177  NH1       73.9540   19.4820   29.6320 N.pl3 274  ARG274      0.1354
    178  NH2       73.2400   20.6280   31.5130 N.pl3 274  ARG274      0.1354
    179  N         79.9920   18.6770   27.1240 N.3   277  HIS277     -0.1241
    180  CA        78.6880   19.1090   26.6240 C.3   277  HIS277      0.1621
    181  C         78.3010   18.5320   25.2690 C.2   277  HIS277      0.2264
    182  O         79.0050   18.7260   24.2770 O.2   277  HIS277     -0.2867
    183  CB        78.6630   20.6360   26.5710 C.3   277  HIS277      0.0745
    184  CG        77.2670   21.2080   26.5250 C.ar  277  HIS277      0.0817
    185  ND1       77.0630   22.6030   26.4840 N.ar  277  HIS277     -0.2268
    186  CD2       76.0420   20.6270   26.4600 C.ar  277  HIS277      0.1154
    187  CE1       75.7520   22.8100   26.4010 C.ar  277  HIS277      0.1986
    188  NE2       75.1070   21.6530   26.3860 N.ar  277  HIS277     -0.2212
    189  N         71.1780   16.7700   19.8500 N.3   281  TYR281     -0.1241
    190  CA        70.3310   15.5880   19.9710 C.3   281  TYR281      0.1605
    191  C         69.2110   15.7130   18.9290 C.2   281  TYR281      0.2264
    192  O         68.6690   16.8070   18.7340 O.2   281  TYR281     -0.2867
    193  CB        69.6200   15.4240   21.3470 C.3   281  TYR281      0.0534
    194  CG        70.5170   15.3370   22.5780 C.ar  281  TYR281     -0.0201
    195  CD1       71.7900   14.7550   22.5400 C.ar  281  TYR281     -0.0009
    196  CD2       70.0680   15.8560   23.7920 C.ar  281  TYR281     -0.0009
    197  CE1       72.6090   14.6580   23.6720 C.ar  281  TYR281      0.0417
    198  CE2       70.8790   15.7890   24.9320 C.ar  281  TYR281      0.0417
    199  CZ        72.1420   15.1940   24.8720 C.ar  281  TYR281      0.1957
    200  OH        72.9120   15.1250   25.9930 O.3   281  TYR281     -0.2866
@<TRIPOS>BOND
     1   192   191    2
     2   191   190    1
     3   189   190    1
     4   190   193    1
     5   138   137    2
     6   129   130    2
     7   129   128    1
     8   135   136    1
     9   137   136    1
    10   127   128    1
    11   128   131    1
    12   193   194    1
    13   149   148    2
    14   146   147    1
    15   136   139    1
    16   160   161    1
    17   152   154   ar
    18   152   151   ar
    19   195   194   ar
    20   195   197   ar
    21   148   147    1
    22   194   196   ar
    23   131   132    1
    24   147   150    1
    25   150   151    1
    26   162   161    1
    27   162   163    2
    28   161   164    1
    29   132   134   am
    30   132   133    2
    31   139   140    1
    32   154   155   ar
    33   144   143    1
    34   151   153   ar
    35   197   199   ar
    36   196   198   ar
    37   140   141    1
    38   164   165    1
    39   141   142    1
    40   182   181    2
    41   166   165    2
    42   165   167   am
    43   143   142    2
    44   143   145    1
    45   155   153   ar
    46   155   157   ar
    47   153   156   ar
    48   199   198   ar
    49   199   200    1
    50    47    48    1
    51   181   180    1
    52   114   112    1
    53    26    27    1
    54    50    49    2
    55    53    52    2
    56    29    28    2
    57    28    27    1
    58    27    30    1
    59   157   159   ar
    60   156   158   ar
    61   118   117    2
    62    51    52    1
    63    51    48    1
    64    52    54   am
    65    48    49    1
    66   113   112    1
    67   112   111    1
    68   188   187   ar
    69   188   186   ar
    70   187   185   ar
    71   186   184   ar
    72   185   184   ar
    73   184   183    1
    74   183   180    1
    75   180   179    1
    76   159   158   ar
    77    30    31    1
    78    31    32    1
    79   117   116    1
    80    80    78    1
    81   111   108    1
    82    32    34   ar
    83    32    33   ar
    84   110   109    2
    85   116   119    1
    86   116   115    1
    87   119   120    1
    88   109   115   am
    89   109   108    1
    90   171   170    2
    91   108   107    1
    92    78    79    1
    93    78    77    1
    94    98    96   ar
    95    98    99   ar
    96    96    94   ar
    97   177   176    1
    98   168   169    1
    99    77    74    1
   100   120   122   ar
   101   120   121   ar
   102   170   169    1
   103   107   102   am
   104   122   124   ar
   105    99    97   ar
   106   172   169    1
   107   172   173    1
   108   174   173    1
   109   174   175    1
   110   176   175    2
   111   176   178    1
   112    94    93    1
   113    94    95   ar
   114   121   123   ar
   115   102   103    2
   116   102   101    1
   117    93    90    1
   118   124   125   ar
   119    75    74    1
   120    75    76    2
   121    74    73    1
   122    44    42   ar
   123    44    45   ar
   124    17    15    1
   125    97    95   ar
   126    46    45    1
   127    42    40   ar
   128    16    15    1
   129    73    66   am
   130    45    43   ar
   131    15    12    1
   132   123   125   ar
   133   125   126    1
   134    37    38    2
   135    37    36    1
   136   101   100    1
   137   101   104    1
   138   100   106    1
   139    90    91    1
   140    90    89    1
   141    91    92    2
   142    71    72    1
   143    71    70    1
   144    40    39    1
   145    40    41   ar
   146    89    83   am
   147    66    67    2
   148    66    65    1
   149    43    41   ar
   150    39    36    1
   151    35    36    1
   152   104   105    1
   153    12    11    1
   154    12    13    1
   155    68    65    1
   156    68    69    1
   157   106   105    1
   158    24    23   ar
   159    65    64    1
   160    25    23   ar
   161    11     3   am
   162    70    69    1
   163    23    22    1
   164    13    14    2
   165    13    18   am
   166    83    82    1
   167    83    84    2
   168    81    82    1
   169    10     8   ar
   170    10     9   ar
   171    18    19    1
   172     8     6   ar
   173    85    82    1
   174    85    86    1
   175    88    86    1
   176     3     2    1
   177     3     4    2
   178    86    87    1
   179    64    57   am
   180    58    57    2
   181    19    22    1
   182    19    20    1
   183     2     1    1
   184     2     5    1
   185     9     7   ar
   186     6     7   ar
   187     6     5    1
   188    57    56    1
   189    20    21    2
   190    56    55    1
   191    56    59    1
   192    60    59    1
   193    60    61    1
   194    63    61   ar
   195    61    62   ar
