@<TRIPOS>MOLECULE
tmp/1r6aA01.pdb
 103 97 0 0 0
SMALL
GASTEIGER

@<TRIPOS>ATOM
      1  N          8.8630  -48.4720   23.0460 N.3     8  LYS8       -0.1245
      2  CA        10.2280  -48.3200   22.5370 C.3     8  LYS8        0.1561
      3  C         11.2800  -48.8670   23.5080 C.2     8  LYS8        0.2260
      4  O         12.2150  -49.5730   23.1090 O.2     8  LYS8       -0.2867
      5  CB        10.5140  -46.8460   22.2300 C.3     8  LYS8        0.0271
      6  CG        11.7940  -46.6000   21.4390 C.3     8  LYS8        0.0035
      7  CD        11.6720  -47.0660   19.9900 C.3     8  LYS8        0.0206
      8  CE        12.9330  -46.7210   19.1980 C.3     8  LYS8        0.1093
      9  NZ        12.8760  -47.1200   17.7590 N.3     8  LYS8       -0.1314
     10  N         11.0780  -52.5000   23.5390 N.3    11  LEU11      -0.1231
     11  CA        11.7050  -52.9480   22.3040 C.3    11  LEU11       0.1693
     12  C         13.2370  -52.9630   22.4480 C.2    11  LEU11       0.2592
     13  O         13.8780  -53.9920   22.2340 O.2    11  LEU11      -0.2718
     14  CB        11.3010  -52.0210   21.1510 C.3    11  LEU11       0.0284
     15  CG        12.0010  -52.2680   19.8100 C.3    11  LEU11       0.0019
     16  CD1       11.6400  -53.6420   19.2880 C.3    11  LEU11       0.0001
     17  CD2       11.6060  -51.1960   18.8110 C.3    11  LEU11       0.0001
     18  N         13.8140  -51.8150   22.8120 N.am   12  ASN12      -0.1974
     19  CA        15.2660  -51.6850   22.9960 C.3    12  ASN12       0.1688
     20  C         15.8220  -52.7270   23.9690 C.2    12  ASN12       0.2292
     21  O         16.9300  -53.2510   23.7780 O.2    12  ASN12      -0.2864
     22  CB        15.6270  -50.2990   23.5480 C.3    12  ASN12       0.1181
     23  CG        15.3470  -49.1750   22.5680 C.2    12  ASN12       0.2629
     24  OD1       15.5870  -49.3040   21.3710 O.2    12  ASN12      -0.2716
     25  ND2       14.8580  -48.0510   23.0830 N.am   12  ASN12      -0.0877
     26  N         14.9480  -55.6830   24.4030 N.3    14  LEU14      -0.1245
     27  CA        14.8770  -57.0480   23.8960 C.3    14  LEU14       0.1561
     28  C         16.2370  -57.6450   23.5580 C.2    14  LEU14       0.2260
     29  O         17.1830  -56.9250   23.2360 O.2    14  LEU14      -0.2867
     30  CB        13.9750  -57.1010   22.6530 C.3    14  LEU14       0.0270
     31  CG        12.5260  -57.5880   22.7920 C.3    14  LEU14       0.0019
     32  CD1       11.8520  -56.9530   23.9960 C.3    14  LEU14       0.0001
     33  CD2       11.7700  -57.2600   21.5080 C.3    14  LEU14       0.0001
     34  N         18.8060  -59.8310   21.2220 N.3    16  LYS16      -0.1245
     35  CA        18.9330  -59.8690   19.7730 C.3    16  LYS16       0.1561
     36  C         18.0070  -60.8900   19.1360 C.2    16  LYS16       0.2260
     37  O         17.3520  -60.6120   18.1350 O.2    16  LYS16      -0.2867
     38  CB        20.3790  -60.1530   19.3660 C.3    16  LYS16       0.0271
     39  CG        21.3180  -58.9800   19.6340 C.3    16  LYS16       0.0035
     40  CD        22.5060  -58.9610   18.6660 C.3    16  LYS16       0.0206
     41  CE        23.1700  -57.5860   18.6460 C.3    16  LYS16       0.1093
     42  NZ        22.1770  -56.4910   18.3340 N.3    16  LYS16      -0.1314
     43  N         14.2880  -60.0000   19.6600 N.3    19  PHE19      -0.1227
     44  CA        14.0170  -58.9210   18.7200 C.3    19  PHE19       0.1736
     45  C         13.6170  -59.3560   17.3200 C.2    19  PHE19       0.2595
     46  O         12.6120  -58.8920   16.7870 O.2    19  PHE19      -0.2718
     47  CB        15.2310  -58.0130   18.6000 C.3    19  PHE19       0.0547
     48  CG        15.0300  -56.8800   17.6530 C.ar   19  PHE19      -0.0202
     49  CD1       14.3260  -55.7570   18.0450 C.ar   19  PHE19      -0.0042
     50  CD2       15.4870  -56.9650   16.3440 C.ar   19  PHE19      -0.0042
     51  CE1       14.0720  -54.7280   17.1550 C.ar   19  PHE19      -0.0003
     52  CE2       15.2360  -55.9360   15.4400 C.ar   19  PHE19      -0.0003
     53  CZ        14.5230  -54.8120   15.8510 C.ar   19  PHE19      -0.0000
     54  N         14.4060  -60.2210   16.7020 N.am   20  GLN20      -0.1979
     55  CA        14.0690  -60.6750   15.3540 C.3    20  GLN20       0.1601
     56  C         12.7090  -61.3690   15.2990 C.2    20  GLN20       0.2287
     57  O         11.9300  -61.1420   14.3690 O.2    20  GLN20      -0.2864
     58  CB        15.1490  -61.6180   14.8120 C.3    20  GLN20       0.0394
     59  CG        16.4390  -60.9110   14.4530 C.3    20  GLN20       0.0908
     60  CD        16.2380  -59.8400   13.3970 C.2    20  GLN20       0.2608
     61  OE1       16.8670  -58.7710   13.4510 O.2    20  GLN20      -0.2717
     62  NE2       15.3670  -60.1170   12.4250 N.am   20  GLN20      -0.0878
     63  N          9.9890  -58.6500   15.7290 N.3    23  LYS23      -0.1245
     64  CA         9.9160  -57.8220   14.5310 C.3    23  LYS23       0.1561
     65  C          8.9820  -58.3520   13.4310 C.2    23  LYS23       0.2260
     66  O          8.4120  -57.5830   12.6450 O.2    23  LYS23      -0.2867
     67  CB        11.3250  -57.6270   13.9710 C.3    23  LYS23       0.0271
     68  CG        11.3860  -56.7630   12.7440 C.3    23  LYS23       0.0035
     69  CD        12.8140  -56.5490   12.2990 C.3    23  LYS23       0.0206
     70  CE        12.8460  -55.8340   10.9640 C.3    23  LYS23       0.1093
     71  NZ        14.2250  -55.4670   10.5500 N.3    23  LYS23      -0.1314
     72  N         15.4600  -44.8380   11.4700 N.3   144  SER144     -0.1202
     73  CA        15.1190  -45.1620   12.8550 C.3   144  SER144      0.2020
     74  C         16.3150  -45.1560   13.8060 C.2   144  SER144      0.2619
     75  O         17.4260  -45.5340   13.4280 O.2   144  SER144     -0.2717
     76  CB        14.4150  -46.5170   12.9380 C.3   144  SER144      0.2103
     77  OG        15.3590  -47.5610   13.0040 O.3   144  SER144     -0.2182
     78  N         16.0620  -44.7280   15.0450 N.am  145  SER145     -0.1938
     79  CA        17.0870  -44.6500   16.0860 C.3   145  SER145      0.2040
     80  C         16.6010  -45.2110   17.4140 C.2   145  SER145      0.2485
     81  O         15.4400  -45.0410   17.7920 O.2   145  SER145     -0.2729
     82  CB        17.5220  -43.1910   16.3160 C.3   145  SER145      0.2129
     83  OG        18.4560  -43.0970   17.3860 O.3   145  SER145     -0.2179
     84  N         17.4960  -45.8900   18.1420 N.am  146  PRO146     -0.2726
     85  CA        17.1170  -46.4550   19.4390 C.3   146  PRO146      0.1402
     86  C         16.6290  -45.3410   20.3630 C.2   146  PRO146      0.2269
     87  O         15.8750  -45.5870   21.3000 O.2   146  PRO146     -0.2865
     88  CB        18.4150  -47.0880   19.9330 C.3   146  PRO146      0.0296
     89  CG        19.0480  -47.5590   18.6640 C.3   146  PRO146      0.0237
     90  CD        18.8210  -46.3800   17.7160 C.3   146  PRO146      0.0939
     91  N          9.1190  -53.6500   14.6360 N.3   208  SER208     -0.1202
     92  CA        10.2670  -52.9050   15.1590 C.3   208  SER208      0.2020
     93  C         10.2140  -51.4000   14.8840 C.2   208  SER208      0.2619
     94  O         11.1310  -50.6570   15.2360 O.2   208  SER208     -0.2717
     95  CB        11.5510  -53.4830   14.5790 C.3   208  SER208      0.2103
     96  OG        11.4090  -53.6670   13.1860 O.3   208  SER208     -0.2182
     97  N          9.1370  -50.9550   14.2540 N.am  209  THR209     -0.1952
     98  CA         8.9630  -49.5440   13.9490 C.3   209  THR209      0.1897
     99  C          7.5140  -49.1910   14.2220 C.2   209  THR209      0.2313
    100  O          6.6180  -49.9760   13.9150 O.2   209  THR209     -0.2863
    101  CB         9.3070  -49.2300   12.4640 C.3   209  THR209      0.1794
    102  OG1        9.0030  -47.8610   12.1720 O.3   209  THR209     -0.2208
    103  CG2        8.5230  -50.1220   11.5210 C.3   209  THR209      0.0378
@<TRIPOS>BOND
     1    71    70    1
     2    70    69    1
     3    72    73    1
     4   103   101    1
     5   102   101    1
     6    69    68    1
     7    62    60   am
     8   101    98    1
     9    66    65    2
    10    68    67    1
    11    73    76    1
    12    73    74    1
    13    76    77    1
    14    96    95    1
    15    60    61    2
    16    60    59    1
    17    75    74    2
    18    65    64    1
    19    74    78   am
    20   100    99    2
    21    98    99    1
    22    98    97    1
    23    67    64    1
    24    97    93   am
    25    57    56    2
    26    59    58    1
    27    64    63    1
    28    95    92    1
    29    91    92    1
    30    58    55    1
    31    93    92    1
    32    93    94    2
    33    78    79    1
    34    56    55    1
    35    55    54    1
    36    52    53   ar
    37    52    50   ar
    38    53    51   ar
    39    79    82    1
    40    79    80    1
    41    82    83    1
    42    50    48   ar
    43    54    45   am
    44    46    45    2
    45    51    49   ar
    46    45    44    1
    47    80    81    2
    48    80    84   am
    49    48    49   ar
    50    48    47    1
    51    90    84    1
    52    90    89    1
    53     9     8    1
    54    37    36    2
    55    84    85    1
    56    42    41    1
    57    47    44    1
    58    41    40    1
    59    89    88    1
    60    40    39    1
    61    44    43    1
    62    17    15    1
    63    36    35    1
    64     8     7    1
    65    16    15    1
    66    38    39    1
    67    38    35    1
    68    85    88    1
    69    85    86    1
    70    35    34    1
    71    15    14    1
    72     7     6    1
    73    86    87    2
    74    14    11    1
    75    24    23    2
    76     6     5    1
    77    33    31    1
    78     5     2    1
    79    13    12    2
    80    11    12    1
    81    11    10    1
    82    12    18   am
    83     2     1    1
    84     2     3    1
    85    23    25   am
    86    23    22    1
    87    30    31    1
    88    30    27    1
    89    31    32    1
    90    18    19    1
    91    19    22    1
    92    19    20    1
    93     4     3    2
    94    29    28    2
    95    28    27    1
    96    21    20    2
    97    27    26    1
