@<TRIPOS>MOLECULE
tmp/1r6dA01.pdb
 242 237 0 0 0
SMALL
GASTEIGER

@<TRIPOS>ATOM
      1  N         29.2740   13.0350   16.5360 N.3    87  SER87      -0.1202
      2  CA        29.1470   13.5290   15.1520 C.3    87  SER87       0.2020
      3  C         30.0340   14.6660   14.6180 C.2    87  SER87       0.2619
      4  O         29.9390   15.0400   13.4130 O.2    87  SER87      -0.2717
      5  CB        27.6850   13.9780   14.9780 C.3    87  SER87       0.2103
      6  OG        27.5100   15.2880   15.5240 O.3    87  SER87      -0.2182
      7  N         30.9120   15.2120   15.4730 N.am   88  HIS88      -0.1961
      8  CA        31.7080   16.3270   15.0010 C.3    88  HIS88       0.1787
      9  C         33.1580   16.0460   14.6610 C.2    88  HIS88       0.2620
     10  O         33.9570   15.6360   15.5030 O.2    88  HIS88      -0.2715
     11  CB        31.6180   17.4200   16.0790 C.3    88  HIS88       0.0785
     12  CG        32.0880   18.7510   15.5940 C.ar   88  HIS88       0.0821
     13  ND1       31.9540   19.1330   14.2760 N.ar   88  HIS88      -0.2267
     14  CD2       32.6890   19.7800   16.3060 C.ar   88  HIS88       0.1154
     15  CE1       32.4410   20.3870   14.1890 C.ar   88  HIS88       0.1986
     16  NE2       32.8920   20.8010   15.3870 N.ar   88  HIS88      -0.2212
     17  N         33.5160   16.3050   13.4000 N.am   89  VAL89      -0.1963
     18  CA        34.9000   16.0380   12.9640 C.3    89  VAL89       0.1727
     19  C         35.9480   16.7150   13.8560 C.2    89  VAL89       0.2616
     20  O         36.9730   16.1150   14.2180 O.2    89  VAL89      -0.2715
     21  CB        35.0660   16.5060   11.4950 C.3    89  VAL89       0.0290
     22  CG1       36.4850   16.2330   10.9870 C.3    89  VAL89       0.0023
     23  CG2       34.0920   15.7760   10.5800 C.3    89  VAL89       0.0023
     24  N         35.6930   17.9920   14.2190 N.am   90  ASP90      -0.1971
     25  CA        36.6580   18.7250   15.0410 C.3    90  ASP90       0.1709
     26  C         36.9280   18.0250   16.3650 C.2    90  ASP90       0.2293
     27  O         38.1010   17.8940   16.8150 O.2    90  ASP90      -0.2864
     28  CB        36.2450   20.2020   15.2120 C.3    90  ASP90       0.1436
     29  CG        36.4880   20.9310   13.8960 C.2    90  ASP90       0.3671
     30  OD1       37.5290   20.7380   13.2510 O.co2  90  ASP90      -0.2456
     31  OD2       35.5030   21.7480   13.4970 O.co2  90  ASP90      -0.2456
     32  N         27.1760    8.3810    6.9880 N.3   127  THR127     -0.1203
     33  CA        27.5430    9.6090    6.3320 C.3   127  THR127      0.1994
     34  C         28.3670    9.4520    5.0720 C.2   127  THR127      0.2618
     35  O         29.1440    8.4990    4.8910 O.2   127  THR127     -0.2717
     36  CB        28.4330   10.3810    7.3700 C.3   127  THR127      0.1784
     37  OG1       28.9530   11.5730    6.8440 O.3   127  THR127     -0.2211
     38  CG2       29.5920    9.5150    7.8980 C.3   127  THR127      0.0376
     39  N         28.2530   10.4840    4.2620 N.am  128  ASN128     -0.1960
     40  CA        29.0300   10.5070    3.0430 C.3   128  ASN128      0.1819
     41  C         30.5650   10.5930    3.3200 C.2   128  ASN128      0.2621
     42  O         31.3840   10.3280    2.4010 O.2   128  ASN128     -0.2715
     43  CB        28.5120   11.6370    2.1040 C.3   128  ASN128      0.1195
     44  CG        28.7380   13.0720    2.5840 C.2   128  ASN128      0.2630
     45  OD1       29.1420   13.3620    3.7200 O.2   128  ASN128     -0.2716
     46  ND2       28.4320   14.0200    1.7190 N.am  128  ASN128     -0.0877
     47  N         30.9660   10.9620    4.5480 N.am  129  GLN129     -0.1977
     48  CA        32.3980   11.1400    4.8370 C.3   129  GLN129      0.1601
     49  C         33.2150    9.8790    4.7330 C.2   129  GLN129      0.2287
     50  O         34.4430   10.0130    4.6650 O.2   129  GLN129     -0.2864
     51  CB        32.6980   11.8290    6.1980 C.3   129  GLN129      0.0394
     52  CG        31.8790   13.1540    6.4210 C.3   129  GLN129      0.0908
     53  CD        32.4950   14.0580    7.4960 C.2   129  GLN129      0.2608
     54  OE1       33.5210   13.7280    8.1480 O.2   129  GLN129     -0.2717
     55  NE2       31.8560   15.1760    7.7220 N.am  129  GLN129     -0.0878
     56  N         36.5440   10.7810   12.9100 N.3   151  TYR151     -0.1241
     57  CA        35.1100   10.6510   12.8750 C.3   151  TYR151      0.1605
     58  C         34.7070    9.8160   11.6840 C.2   151  TYR151      0.2264
     59  O         33.9850    8.8100   11.8030 O.2   151  TYR151     -0.2867
     60  CB        34.4280   12.0540   12.8020 C.3   151  TYR151      0.0534
     61  CG        32.9780   11.9580   12.3400 C.ar  151  TYR151     -0.0201
     62  CD1       31.9820   11.4550   13.1890 C.ar  151  TYR151     -0.0009
     63  CD2       32.6330   12.2980   11.0370 C.ar  151  TYR151     -0.0009
     64  CE1       30.6620   11.3430   12.7350 C.ar  151  TYR151      0.0417
     65  CE2       31.3170   12.1780   10.5680 C.ar  151  TYR151      0.0417
     66  CZ        30.3160   11.7380   11.4400 C.ar  151  TYR151      0.1957
     67  OH        29.0050   11.6220   10.9860 O.3   151  TYR151     -0.2866
     68  N         24.3750   10.0950    4.1370 N.3   178  CYS178     -0.1221
     69  CA        23.8420   11.3650    3.7320 C.3   178  CYS178      0.1808
     70  C         24.9040   12.4450    3.8040 C.2   178  CYS178      0.2601
     71  O         25.9880   12.2990    4.4220 O.2   178  CYS178     -0.2717
     72  CB        22.7710   11.7240    4.7730 C.3   178  CYS178      0.0970
     73  SG        21.7420   13.1360    4.3040 S.3   178  CYS178     -0.0800
     74  N         24.5620   13.5560    3.1420 N.am  179  CYS179     -0.1956
     75  CA        25.4350   14.7430    3.1180 C.3   179  CYS179      0.1843
     76  C         25.1950   15.6360    4.3200 C.2   179  CYS179      0.2625
     77  O         24.4760   15.2480    5.2260 O.2   179  CYS179     -0.2714
     78  CB        25.2500   15.5490    1.7890 C.3   179  CYS179      0.0997
     79  SG        23.5140   16.1150    1.5670 S.3   179  CYS179     -0.0797
     80  N         25.8090   16.8300    4.3540 N.am  180  ASN180     -0.1958
     81  CA        25.5650   17.7230    5.4910 C.3   180  ASN180      0.1819
     82  C         24.1260   18.1220    5.6490 C.2   180  ASN180      0.2621
     83  O         23.4750   18.6440    4.7600 O.2   180  ASN180     -0.2715
     84  CB        26.3100   19.0550    5.3910 C.3   180  ASN180      0.1195
     85  CG        27.7710   18.8560    5.4210 C.2   180  ASN180      0.2630
     86  OD1       28.3610   18.0830    4.6470 O.2   180  ASN180     -0.2716
     87  ND2       28.3810   19.5820    6.2820 N.am  180  ASN180     -0.0877
     88  N         23.6350   17.8940    6.8610 N.am  181  ASN181     -0.1972
     89  CA        22.2750   18.3200    7.1300 C.3   181  ASN181      0.1688
     90  C         22.2620   19.7140    7.7890 C.2   181  ASN181      0.2292
     91  O         23.2220   20.1600    8.4010 O.2   181  ASN181     -0.2864
     92  CB        21.6470   17.4420    8.2090 C.3   181  ASN181      0.1181
     93  CG        21.1770   16.1010    7.7370 C.2   181  ASN181      0.2629
     94  OD1       20.0970   15.6530    8.1820 O.2   181  ASN181     -0.2716
     95  ND2       21.9750   15.4630    6.8730 N.am  181  ASN181     -0.0877
     96  N         19.9020   22.1800   15.3460 N.3   186  GLN186     -0.1245
     97  CA        21.2490   21.6600   15.1350 C.3   186  GLN186      0.1566
     98  C         22.1640   22.3330   16.1840 C.2   186  GLN186      0.2260
     99  O         22.1000   23.5460   16.4890 O.2   186  GLN186     -0.2867
    100  CB        21.7670   22.0260   13.7440 C.3   186  GLN186      0.0367
    101  CG        23.1220   21.3320   13.4690 C.3   186  GLN186      0.0905
    102  CD        23.6140   21.4730   12.0430 C.2   186  GLN186      0.2608
    103  OE1       23.3450   22.4680   11.3680 O.2   186  GLN186     -0.2717
    104  NE2       24.3470   20.4360   11.5970 N.am  186  GLN186     -0.0878
    105  N         27.8420   23.9760   17.4050 N.3   189  GLU189     -0.1231
    106  CA        29.2420   23.7990   17.1460 C.3   189  GLU189      0.1699
    107  C         29.3880   23.5980   15.6230 C.2   189  GLU189      0.2592
    108  O         30.4870   23.7370   15.0540 O.2   189  GLU189     -0.2718
    109  CB        29.7920   22.5330   17.8250 C.3   189  GLU189      0.0402
    110  CG        29.0350   21.2180   17.4060 C.3   189  GLU189      0.1161
    111  CD        29.5500   20.0080   18.1500 C.2   189  GLU189      0.3649
    112  OE1       30.4510   20.1110   18.9950 O.co2 189  GLU189     -0.2457
    113  OE2       28.9230   18.8880   17.8600 O.co2 189  GLU189     -0.2457
    114  N         28.2570   23.2620   14.9360 N.am  190  LYS190     -0.1966
    115  CA        28.2360   23.0200   13.4740 C.3   190  LYS190      0.1728
    116  C         28.2150   24.3440   12.6810 C.2   190  LYS190      0.2616
    117  O         27.6860   25.3610   13.1320 O.2   190  LYS190     -0.2715
    118  CB        27.1320   22.0530   13.0440 C.3   190  LYS190      0.0311
    119  CG        27.2090   20.7430   13.8530 C.3   190  LYS190      0.0038
    120  CD        28.4850   19.9340   13.5820 C.3   190  LYS190      0.0206
    121  CE        28.5620   18.5660   14.2620 C.3   190  LYS190      0.1093
    122  NZ        27.6180   17.5500   13.6950 N.3   190  LYS190     -0.1314
    123  N         28.7990   24.3110   11.4780 N.am  191  LEU191     -0.1977
    124  CA        28.9540   25.5030   10.6360 C.3   191  LEU191      0.1596
    125  C         27.8020   26.5000   10.5570 C.2   191  LEU191      0.2287
    126  O         27.9250   27.6860   10.8760 O.2   191  LEU191     -0.2864
    127  CB        29.5200   25.1260    9.2520 C.3   191  LEU191      0.0297
    128  CG        29.5520   26.3310    8.3380 C.3   191  LEU191      0.0022
    129  CD1       30.7800   27.1590    8.7080 C.3   191  LEU191      0.0001
    130  CD2       29.7100   25.8670    6.9010 C.3   191  LEU191      0.0001
    131  N         26.6090   27.7820   13.9760 N.3   194  LEU194     -0.1231
    132  CA        27.6570   28.5430   14.5920 C.3   194  LEU194      0.1693
    133  C         27.7350   29.9260   13.9990 C.2   194  LEU194      0.2592
    134  O         27.7680   30.9150   14.7490 O.2   194  LEU194     -0.2718
    135  CB        29.0080   27.8250   14.4050 C.3   194  LEU194      0.0284
    136  CG        30.1890   28.6590   14.8840 C.3   194  LEU194      0.0019
    137  CD1       30.1930   28.7130   16.4090 C.3   194  LEU194      0.0001
    138  CD2       31.5070   28.0270   14.4080 C.3   194  LEU194      0.0001
    139  N         27.7930   29.9970   12.6570 N.am  195  PHE195     -0.1976
    140  CA        27.9180   31.2610   11.9780 C.3   195  PHE195      0.1639
    141  C         26.6720   32.0950   12.1630 C.2   195  PHE195      0.2290
    142  O         26.7640   33.2910   12.4100 O.2   195  PHE195     -0.2864
    143  CB        28.1880   30.9970   10.4970 C.3   195  PHE195      0.0560
    144  CG        29.6630   30.7250   10.1830 C.ar  195  PHE195     -0.0200
    145  CD1       30.5670   30.2480   11.1380 C.ar  195  PHE195     -0.0042
    146  CD2       30.1650   30.9770    8.9070 C.ar  195  PHE195     -0.0042
    147  CE1       31.9090   30.0170   10.8120 C.ar  195  PHE195     -0.0003
    148  CE2       31.5040   30.7700    8.5710 C.ar  195  PHE195     -0.0003
    149  CZ        32.3830   30.2790    9.5290 C.ar  195  PHE195     -0.0000
    150  N         34.6550   32.2620   12.1330 N.3   206  PRO206     -0.2102
    151  CA        35.9130   31.6070   11.8730 C.3   206  PRO206      0.1504
    152  C         35.8420   30.6490   10.6870 C.2   206  PRO206      0.2576
    153  O         35.4930   29.4720   10.8310 O.2   206  PRO206     -0.2718
    154  CB        36.2340   30.7990   13.1240 C.3   206  PRO206      0.0282
    155  CG        34.8780   30.4420   13.7170 C.3   206  PRO206      0.0208
    156  CD        33.9520   31.6150   13.2980 C.3   206  PRO206      0.0893
    157  N         36.2620   31.1890    9.5460 N.am  207  LEU207     -0.1966
    158  CA        36.2800   30.4750    8.2920 C.3   207  LEU207      0.1728
    159  C         37.5740   29.6650    8.1160 C.2   207  LEU207      0.2616
    160  O         38.6390   30.2230    7.9580 O.2   207  LEU207     -0.2715
    161  CB        35.8880   31.4200    7.1470 C.3   207  LEU207      0.0311
    162  CG        35.8220   30.7150    5.7750 C.3   207  LEU207      0.0022
    163  CD1       34.7340   29.6340    5.8220 C.3   207  LEU207      0.0001
    164  CD2       35.5710   31.7300    4.6490 C.3   207  LEU207      0.0001
    165  N         37.5020   28.3250    8.2010 N.am  208  TYR208     -0.1974
    166  CA        38.7160   27.5210    8.0880 C.3   208  TYR208      0.1639
    167  C         39.4360   27.6190    6.7740 C.2   208  TYR208      0.2290
    168  O         38.8600   27.5470    5.6890 O.2   208  TYR208     -0.2864
    169  CB        38.4580   26.0220    8.2710 C.3   208  TYR208      0.0560
    170  CG        37.8410   25.5760    9.5810 C.ar  208  TYR208     -0.0198
    171  CD1       37.7310   26.4470   10.6680 C.ar  208  TYR208     -0.0009
    172  CD2       37.3930   24.2550    9.7100 C.ar  208  TYR208     -0.0009
    173  CE1       37.1910   25.9900   11.8770 C.ar  208  TYR208      0.0417
    174  CE2       36.8460   23.7810   10.9020 C.ar  208  TYR208      0.0417
    175  CZ        36.7380   24.6680   11.9760 C.ar  208  TYR208      0.1957
    176  OH        36.2040   24.2310   13.1720 O.3   208  TYR208     -0.2866
    177  N         30.7080   21.4240    0.2870 N.3   215  ARG215     -0.1245
    178  CA        29.7650   20.5620    1.0080 C.3   215  ARG215      0.1563
    179  C         28.4140   20.5350    0.2760 C.2   215  ARG215      0.2260
    180  O         28.0290   21.5130   -0.3600 O.2   215  ARG215     -0.2867
    181  CB        29.6010   21.0330    2.4930 C.3   215  ARG215      0.0307
    182  CG        30.9170   20.9850    3.2780 C.3   215  ARG215      0.0489
    183  CD        31.3780   19.5390    3.3990 C.3   215  ARG215      0.2205
    184  NE        32.5560   19.3970    4.2550 N.pl3 215  ARG215     -0.0865
    185  CZ        33.7970   19.3640    3.7670 C.cat 215  ARG215      0.5346
    186  NH1       33.9710   19.5150    2.4460 N.pl3 215  ARG215      0.1354
    187  NH2       34.8510   19.1780    4.6210 N.pl3 215  ARG215      0.1354
    188  N         24.3700   20.1850    0.8900 N.3   217  TRP217     -0.1241
    189  CA        23.4800   20.4410    2.0290 C.3   217  TRP217      0.1605
    190  C         22.0980   19.9070    1.7690 C.2   217  TRP217      0.2264
    191  O         21.6040   20.0420    0.6300 O.2   217  TRP217     -0.2867
    192  CB        23.3900   22.0040    2.1120 C.3   217  TRP217      0.0550
    193  CG        24.7140   22.5600    2.5770 C.ar  217  TRP217      0.0003
    194  CD1       25.7480   22.9910    1.7850 C.ar  217  TRP217      0.0946
    195  CD2       25.2170   22.5450    3.9340 C.ar  217  TRP217      0.0152
    196  NE1       26.8420   23.2960    2.5680 N.ar  217  TRP217     -0.2442
    197  CE2       26.5350   23.0500    3.8830 C.ar  217  TRP217      0.0810
    198  CE3       24.6660   22.1750    5.1570 C.ar  217  TRP217      0.0012
    199  CZ2       27.3170   23.2120    5.0390 C.ar  217  TRP217      0.0191
    200  CZ3       25.4330   22.3350    6.2750 C.ar  217  TRP217      0.0001
    201  CH2       26.7480   22.8430    6.2290 C.ar  217  TRP217      0.0015
    202  N         32.3070   26.6650    1.2340 N.3   250  ASN250     -0.1240
    203  CA        32.0200   27.2820    2.5270 C.3   250  ASN250      0.1653
    204  C         32.0210   28.7950    2.4000 C.2   250  ASN250      0.2266
    205  O         31.3120   29.4970    3.1100 O.2   250  ASN250     -0.2867
    206  CB        33.0630   26.8600    3.5490 C.3   250  ASN250      0.1155
    207  CG        32.9170   25.3950    3.9010 C.2   250  ASN250      0.2627
    208  OD1       31.8140   24.8240    3.8030 O.2   250  ASN250     -0.2716
    209  ND2       34.0260   24.8180    4.3700 N.am  250  ASN250     -0.0877
    210  N         41.3410   23.1100    9.2300 N.3   274  ARG274     -0.1245
    211  CA        41.1630   21.8800    9.9510 C.3   274  ARG274      0.1563
    212  C         42.2180   20.8560    9.4250 C.2   274  ARG274      0.2260
    213  O         42.4730   20.7220    8.1860 O.2   274  ARG274     -0.2867
    214  CB        39.7240   21.3750    9.6920 C.3   274  ARG274      0.0307
    215  CG        39.4480   19.9140   10.0110 C.3   274  ARG274      0.0489
    216  CD        38.0450   19.5320    9.5300 C.3   274  ARG274      0.2205
    217  NE        37.0030   20.1380   10.3900 N.pl3 274  ARG274     -0.0865
    218  CZ        35.6870   20.0270   10.1530 C.cat 274  ARG274      0.5346
    219  NH1       35.2120   19.3560    9.0820 N.pl3 274  ARG274      0.1354
    220  NH2       34.8170   20.6100   11.0030 N.pl3 274  ARG274      0.1354
    221  N         41.4860   18.3230    6.4450 N.3   277  HIS277     -0.1241
    222  CA        40.1930   18.8070    5.9520 C.3   277  HIS277      0.1621
    223  C         39.8420   18.2650    4.5770 C.2   277  HIS277      0.2264
    224  O         40.6100   18.4110    3.6040 O.2   277  HIS277     -0.2867
    225  CB        40.2760   20.3470    5.9230 C.3   277  HIS277      0.0745
    226  CG        38.9510   21.0630    5.8580 C.ar  277  HIS277      0.0817
    227  ND1       38.8770   22.4670    5.8820 N.ar  277  HIS277     -0.2268
    228  CD2       37.6550   20.5700    5.7850 C.ar  277  HIS277      0.1154
    229  CE1       37.5860   22.7900    5.8260 C.ar  277  HIS277      0.1986
    230  NE2       36.8180   21.6720    5.7770 N.ar  277  HIS277     -0.2212
    231  N         32.7100   17.0150   -0.8560 N.3   281  TYR281     -0.1241
    232  CA        31.8240   15.8890   -0.7420 C.3   281  TYR281      0.1605
    233  C         30.7760   16.0460   -1.8110 C.2   281  TYR281      0.2264
    234  O         30.2720   17.1550   -2.0000 O.2   281  TYR281     -0.2867
    235  CB        31.0660   15.9010    0.6120 C.3   281  TYR281      0.0534
    236  CG        31.9760   15.7400    1.8360 C.ar  281  TYR281     -0.0201
    237  CD1       33.1810   15.0280    1.8050 C.ar  281  TYR281     -0.0009
    238  CD2       31.5800   16.2570    3.0650 C.ar  281  TYR281     -0.0009
    239  CE1       34.0000   14.8910    2.9260 C.ar  281  TYR281      0.0417
    240  CE2       32.3730   16.1450    4.2040 C.ar  281  TYR281      0.0417
    241  CZ        33.5830   15.4630    4.1270 C.ar  281  TYR281      0.1957
    242  OH        34.3400   15.3540    5.2480 O.3   281  TYR281     -0.2866
@<TRIPOS>BOND
     1   234   233    2
     2   233   232    1
     3   231   232    1
     4   232   235    1
     5   180   179    2
     6   179   178    1
     7   177   178    1
     8   235   236    1
     9   191   190    2
    10   188   189    1
    11   178   181    1
    12   202   203    1
    13    79    78    1
    14    46    44   am
    15   190   189    1
    16   194   196   ar
    17   194   193   ar
    18    78    75    1
    19   237   236   ar
    20   237   239   ar
    21   236   238   ar
    22   189   192    1
    23    43    44    1
    24    43    40    1
    25   192   193    1
    26   204   203    1
    27   204   205    2
    28    42    41    2
    29   186   185    1
    30   181   182    1
    31   203   206    1
    32   196   197   ar
    33   193   195   ar
    34    44    45    2
    35   239   241   ar
    36    40    41    1
    37    40    39    1
    38   238   240   ar
    39    75    74    1
    40    75    76    1
    41    74    70   am
    42   182   183    1
    43    41    47   am
    44   183   184    1
    45   206   207    1
    46   224   223    2
    47    69    70    1
    48    69    68    1
    49    69    72    1
    50   185   184    2
    51   185   187    1
    52   208   207    2
    53    70    71    2
    54   197   195   ar
    55   197   199   ar
    56   207   209   am
    57   195   198   ar
    58   241   240   ar
    59   241   242    1
    60    39    34   am
    61    73    72    1
    62    76    80   am
    63    76    77    2
    64    80    81    1
    65    47    48    1
    66   223   222    1
    67    86    85    2
    68   164   162    1
    69    50    49    2
    70    49    48    1
    71    83    82    2
    72    48    51    1
    73    35    34    2
    74   199   201   ar
    75    34    33    1
    76   198   200   ar
    77    84    85    1
    78    84    81    1
    79    85    87   am
    80    81    82    1
    81    82    88   am
    82   168   167    2
    83   162   163    1
    84   162   161    1
    85   230   228   ar
    86   230   229   ar
    87   228   226   ar
    88   229   227   ar
    89   226   227   ar
    90   226   225    1
    91   225   222    1
    92   222   221    1
    93    51    52    1
    94   201   200   ar
    95    33    32    1
    96    33    36    1
    97    52    53    1
    98   167   166    1
    99    37    36    1
   100    88    89    1
   101    95    93   am
   102   130   128    1
   103    89    90    1
   104    89    92    1
   105   161   158    1
   106    36    38    1
   107    53    55   am
   108    53    54    2
   109    93    94    2
   110    93    92    1
   111    90    91    2
   112   160   159    2
   113   166   165    1
   114   166   169    1
   115   159   165   am
   116   159   158    1
   117   213   212    2
   118   169   170    1
   119   158   157    1
   120   128   129    1
   121   128   127    1
   122   148   146   ar
   123   148   149   ar
   124   146   144   ar
   125   219   218    1
   126   210   211    1
   127   127   124    1
   128   212   211    1
   129   149   147   ar
   130   216   215    1
   131   216   217    1
   132   157   152   am
   133   170   172   ar
   134   170   171   ar
   135   214   211    1
   136   214   215    1
   137   172   174   ar
   138   218   217    2
   139   218   220    1
   140   144   143    1
   141   144   145   ar
   142   143   140    1
   143   125   124    1
   144   125   126    2
   145    65    63   ar
   146    65    66   ar
   147    23    21    1
   148   124   123    1
   149   171   173   ar
   150   152   153    2
   151   152   151    1
   152   147   145   ar
   153   174   175   ar
   154    67    66    1
   155    22    21    1
   156    63    61   ar
   157   103   102    2
   158    66    64   ar
   159   123   116   am
   160    21    18    1
   161   104   102   am
   162    58    59    2
   163    58    57    1
   164   151   150    1
   165   151   154    1
   166   173   175   ar
   167   175   176    1
   168   140   141    1
   169   140   139    1
   170   102   101    1
   171   150   156    1
   172   141   142    2
   173    61    60    1
   174    61    62   ar
   175   139   133   am
   176   116   117    2
   177   116   115    1
   178    64    62   ar
   179    60    57    1
   180    57    56    1
   181    18    17    1
   182    18    19    1
   183   118   115    1
   184   118   119    1
   185   154   155    1
   186    30    29   ar
   187   156   155    1
   188    17     9   am
   189     4     3    2
   190   101   100    1
   191   115   114    1
   192    31    29   ar
   193   120   119    1
   194   120   121    1
   195   122   121    1
   196   100    97    1
   197    19    20    2
   198    19    24   am
   199    29    28    1
   200   131   132    1
   201   133   132    1
   202   133   134    2
   203    15    13   ar
   204    15    16   ar
   205    24    25    1
   206    13    12   ar
   207   135   132    1
   208   135   136    1
   209   138   136    1
   210     3     2    1
   211     3     7   am
   212     9     8    1
   213     9    10    2
   214   136   137    1
   215   114   107   am
   216     5     2    1
   217     5     6    1
   218     8     7    1
   219     8    11    1
   220    25    28    1
   221    25    26    1
   222   108   107    2
   223    97    96    1
   224    97    98    1
   225     2     1    1
   226    16    14   ar
   227    12    11    1
   228    12    14   ar
   229   107   106    1
   230    98    99    2
   231    26    27    2
   232   106   105    1
   233   106   109    1
   234   110   109    1
   235   110   111    1
   236   113   111   ar
   237   111   112   ar
