@<TRIPOS>MOLECULE
tmp/1r6gA00.pdb
 234 222 0 0 0
SMALL
GASTEIGER

@<TRIPOS>ATOM
      1  N         56.8710    1.4900    6.3910 N.3    48  PHE48      -0.1241
      2  CA        56.0010    2.5960    5.9100 C.3    48  PHE48       0.1605
      3  C         54.6300    2.0640    5.4660 C.2    48  PHE48       0.2264
      4  O         53.5720    2.5340    5.9230 O.2    48  PHE48      -0.2867
      5  CB        56.6530    3.3840    4.7280 C.3    48  PHE48       0.0534
      6  CG        55.8850    4.6610    4.3070 C.ar   48  PHE48      -0.0203
      7  CD1       56.4320    5.9350    4.5230 C.ar   48  PHE48      -0.0042
      8  CD2       54.6330    4.5880    3.6960 C.ar   48  PHE48      -0.0042
      9  CE1       55.7350    7.1070    4.1490 C.ar   48  PHE48      -0.0003
     10  CE2       53.9400    5.7480    3.3240 C.ar   48  PHE48      -0.0003
     11  CZ        54.4930    7.0050    3.5520 C.ar   48  PHE48      -0.0000
     12  N         52.1020    0.2850    8.1790 N.3    51  PHE51      -0.1227
     13  CA        51.5500    1.2150    9.1790 C.3    51  PHE51       0.1736
     14  C         50.5710    2.2290    8.5990 C.2    51  PHE51       0.2596
     15  O         49.8000    2.8210    9.3370 O.2    51  PHE51      -0.2718
     16  CB        52.6590    2.0030    9.9130 C.3    51  PHE51       0.0547
     17  CG        53.6120    1.1410   10.7020 C.ar   51  PHE51      -0.0202
     18  CD1       54.9840    1.3330   10.5990 C.ar   51  PHE51      -0.0042
     19  CD2       53.1430    0.1460   11.5500 C.ar   51  PHE51      -0.0042
     20  CE1       55.8690    0.5300   11.3040 C.ar   51  PHE51      -0.0003
     21  CE2       54.0260   -0.6590   12.2640 C.ar   51  PHE51      -0.0003
     22  CZ        55.3920   -0.4700   12.1390 C.ar   51  PHE51      -0.0000
     23  N         50.6130    2.4510    7.2950 N.am   52  THR52      -0.1953
     24  CA        49.6630    3.3600    6.6590 C.3    52  THR52       0.1897
     25  C         48.4880    2.6290    5.9860 C.2    52  THR52       0.2313
     26  O         47.4610    3.2390    5.6830 O.2    52  THR52      -0.2863
     27  CB        50.4050    4.2870    5.6990 C.3    52  THR52       0.1794
     28  OG1       51.2450    3.5170    4.8010 O.3    52  THR52      -0.2208
     29  CG2       51.3470    5.2540    6.5350 C.3    52  THR52       0.0378
     30  N         46.8130    0.8120    7.8270 N.3    54  ILE54      -0.1231
     31  CA        45.9370    0.6440    9.0120 C.3    54  ILE54       0.1692
     32  C         45.5660    1.9070    9.7840 C.2    54  ILE54       0.2591
     33  O         44.7930    1.8520   10.7520 O.2    54  ILE54      -0.2718
     34  CB        46.5540   -0.3820   10.0160 C.3    54  ILE54       0.0266
     35  CG1       47.9250    0.0560   10.5220 C.3    54  ILE54       0.0019
     36  CG2       46.6690   -1.7690    9.3740 C.3    54  ILE54       0.0020
     37  CD1       48.3560   -0.7100   11.7610 C.3    54  ILE54       0.0001
     38  N         46.1080    3.0380    9.3480 N.am   55  ILE55      -0.1980
     39  CA        45.9510    4.3000   10.0600 C.3    55  ILE55       0.1595
     40  C         44.6370    4.9760    9.6980 C.2    55  ILE55       0.2287
     41  O         44.1150    5.7520   10.4880 O.2    55  ILE55      -0.2864
     42  CB        47.1580    5.2420    9.7750 C.3    55  ILE55       0.0276
     43  CG1       47.2990    6.2990   10.8440 C.3    55  ILE55       0.0022
     44  CG2       47.0400    5.9640    8.4300 C.3    55  ILE55       0.0022
     45  CD1       48.5260    7.1030   10.6220 C.3    55  ILE55       0.0001
     46  N         42.1080    3.7720   12.1690 N.3    58  ALA58      -0.1245
     47  CA        42.4790    4.3570   13.4620 C.3    58  ALA58       0.1562
     48  C         41.9610    5.7830   13.6300 C.2    58  ALA58       0.2260
     49  O         41.3840    6.1190   14.6610 O.2    58  ALA58      -0.2867
     50  CB        43.9870    4.3370   13.6460 C.3    58  ALA58       0.0290
     51  N         38.1180    6.0500   14.0450 N.3    61  ARG61      -0.1231
     52  CA        37.6950    5.6280   15.3660 C.3    61  ARG61       0.1694
     53  C         37.9130    6.7910   16.3380 C.2    61  ARG61       0.2591
     54  O         37.1150    7.0300   17.2350 O.2    61  ARG61      -0.2718
     55  CB        38.4800    4.3900   15.7960 C.3    61  ARG61       0.0321
     56  CG        38.2150    3.1380   14.9650 C.3    61  ARG61       0.0489
     57  CD        38.5440    1.8200   15.6920 C.3    61  ARG61       0.2205
     58  NE        39.9220    1.3560   15.4810 N.pl3  61  ARG61      -0.0865
     59  CZ        41.0100    1.7750   16.1500 C.cat  61  ARG61       0.5346
     60  NH1       40.9550    2.7020   17.1120 N.pl3  61  ARG61       0.1354
     61  NH2       42.1840    1.2600   15.8400 N.pl3  61  ARG61       0.1354
     62  N         38.9840    7.5410   16.1380 N.am   62  VAL62      -0.1980
     63  CA        39.2240    8.7150   16.9510 C.3    62  VAL62       0.1595
     64  C         38.1700    9.7860   16.6660 C.2    62  VAL62       0.2287
     65  O         37.7890   10.5270   17.5660 O.2    62  VAL62      -0.2864
     66  CB        40.6510    9.2380   16.7340 C.3    62  VAL62       0.0276
     67  CG1       40.8360   10.6410   17.3570 C.3    62  VAL62       0.0022
     68  CG2       41.6690    8.2180   17.3010 C.3    62  VAL62       0.0022
     69  N         46.3240   12.8210   16.6890 N.3    89  MET89      -0.1245
     70  CA        47.5350   12.0610   17.0020 C.3    89  MET89       0.1570
     71  C         47.7560   11.9360   18.4960 C.2    89  MET89       0.2261
     72  O         48.3760   10.9630   18.9420 O.2    89  MET89      -0.2867
     73  CB        48.7730   12.6990   16.3740 C.3    89  MET89       0.0387
     74  CG        50.0710   11.9020   16.5620 C.3    89  MET89       0.0595
     75  SD        49.9730   10.2250   16.0040 S.3    89  MET89      -0.1393
     76  CE        51.6040    9.5480   16.5550 C.3    89  MET89       0.0692
     77  N         45.5920    9.3120   19.6050 N.3    92  MET92      -0.1182
     78  CA        46.0830    8.0640   19.0050 C.3    92  MET92       0.1917
     79  C         47.2990    7.4780   19.7470 C.2    92  MET92       0.2635
     80  O         47.3830    6.2790   19.9090 O.2    92  MET92      -0.2714
     81  CB        46.4220    8.2390   17.5120 C.2    92  MET92       0.0083
     82  CG        45.2260    8.1440   16.5330 C.2    92  MET92       0.0282
     83  SD        45.5810    7.9470   14.7260 S.3    92  MET92      -0.1125
     84  CE        46.9960    8.9170   14.5040 C.3    92  MET92       0.0742
     85  N         48.2280    8.3140   20.2040 N.am   93  SER93      -0.1949
     86  CA        49.4630    7.8480   20.8570 C.3    93  SER93       0.1924
     87  C         49.1610    7.2100   22.2020 C.2    93  SER93       0.2314
     88  O         49.7830    6.2200   22.5900 O.2    93  SER93      -0.2863
     89  CB        50.4160    9.0180   21.0740 C.3    93  SER93       0.2116
     90  OG        50.5830    9.7370   19.8790 O.3    93  SER93      -0.2180
     91  N         46.2010    5.8630   23.0790 N.3    95  ARG95      -0.1231
     92  CA        45.4410    4.6720   22.7990 C.3    95  ARG95       0.1694
     93  C         46.3500    3.4430   22.5740 C.2    95  ARG95       0.2591
     94  O         46.0340    2.3140   22.9830 O.2    95  ARG95      -0.2718
     95  CB        44.6090    4.9470   21.5650 C.3    95  ARG95       0.0321
     96  CG        43.2670    5.5820   21.8310 C.3    95  ARG95       0.0489
     97  CD        42.2690    5.2020   20.7700 C.3    95  ARG95       0.2205
     98  NE        40.8980    5.4780   21.1390 N.pl3  95  ARG95      -0.0865
     99  CZ        39.9080    5.5230   20.2630 C.cat  95  ARG95       0.5346
    100  NH1       38.6720    5.7840   20.6760 N.pl3  95  ARG95       0.1354
    101  NH2       40.1370    5.2940   18.9690 N.pl3  95  ARG95       0.1354
    102  N         47.4770    3.6940   21.9140 N.am   96  ALA96      -0.1980
    103  CA        48.5220    2.7150   21.7230 C.3    96  ALA96       0.1597
    104  C         49.3320    2.5120   23.0030 C.2    96  ALA96       0.2287
    105  O         49.4760    1.3770   23.4600 O.2    96  ALA96      -0.2864
    106  CB        49.4370    3.1530   20.5960 C.3    96  ALA96       0.0319
    107  N         48.3930    0.1260   25.7270 N.3    99  ARG99      -0.1245
    108  CA        48.5090   -1.2520   25.2570 C.3    99  ARG99       0.1563
    109  C         49.9820   -1.6510   25.0720 C.2    99  ARG99       0.2260
    110  O         50.3210   -2.4020   24.1410 O.2    99  ARG99      -0.2867
    111  CB        47.7480   -1.4380   23.9220 C.3    99  ARG99       0.0307
    112  CG        46.2300   -1.2210   24.0220 C.3    99  ARG99       0.0489
    113  CD        45.4260   -1.5690   22.7430 C.3    99  ARG99       0.2205
    114  NE        45.4220   -0.4750   21.7530 N.pl3  99  ARG99      -0.0865
    115  CZ        44.4240   -0.1960   20.8880 C.cat  99  ARG99       0.5346
    116  NH1       43.3000   -0.9240   20.8350 N.pl3  99  ARG99       0.1354
    117  NH2       44.5590    0.8310   20.0540 N.pl3  99  ARG99       0.1354
    118  N         50.2900   -2.2100   20.6110 N.3   108  THR108     -0.1203
    119  CA        49.3320   -2.7850   19.6900 C.3   108  THR108      0.1994
    120  C         48.6080   -1.6910   18.8820 C.2   108  THR108      0.2618
    121  O         47.7160   -0.9860   19.3680 O.2   108  THR108     -0.2717
    122  CB        48.3870   -3.6670   20.4600 C.3   108  THR108      0.1784
    123  OG1       49.1490   -4.7360   21.0370 O.3   108  THR108     -0.2211
    124  CG2       47.3810   -4.3260   19.5210 C.3   108  THR108      0.0376
    125  N         49.0370   -1.5610   17.6350 N.am  109  LEU109     -0.1965
    126  CA        48.5380   -0.5450   16.7360 C.3   109  LEU109      0.1728
    127  C         47.2380   -0.9620   16.0850 C.2   109  LEU109      0.2616
    128  O         47.1730   -2.0430   15.5090 O.2   109  LEU109     -0.2715
    129  CB        49.5830   -0.2800   15.6510 C.3   109  LEU109      0.0311
    130  CG        50.9160    0.3090   16.1360 C.3   109  LEU109      0.0022
    131  CD1       51.6750    0.8770   14.9490 C.3   109  LEU109      0.0001
    132  CD2       50.7390    1.3740   17.2130 C.3   109  LEU109      0.0001
    133  N         46.2140   -0.1020   16.1760 N.am  110  ASN110     -0.1972
    134  CA        44.8970   -0.3360   15.5520 C.3   110  ASN110      0.1688
    135  C         44.1230   -1.5040   16.2470 C.2   110  ASN110      0.2292
    136  O         43.0120   -1.8670   15.8430 O.2   110  ASN110     -0.2864
    137  CB        45.0520   -0.4300   13.9860 C.3   110  ASN110      0.1181
    138  CG        43.7710   -0.9430   13.2140 C.2   110  ASN110      0.2629
    139  OD1       43.8220   -1.9620   12.4650 O.2   110  ASN110     -0.2716
    140  ND2       42.6700   -0.1910   13.3220 N.am  110  ASN110     -0.0877
    141  N         58.1670    0.5340   14.7600 N.3   120  LEU120     -0.1245
    142  CA        57.3740    1.7500   14.6670 C.3   120  LEU120      0.1561
    143  C         58.2640    2.9370   14.1980 C.2   120  LEU120      0.2260
    144  O         57.8840    3.7480   13.3200 O.2   120  LEU120     -0.2867
    145  CB        56.7450    2.0160   16.0510 C.3   120  LEU120      0.0270
    146  CG        55.6730    3.1070   16.2640 C.3   120  LEU120      0.0019
    147  CD1       54.4860    2.8590   15.3520 C.3   120  LEU120      0.0001
    148  CD2       55.2190    3.1810   17.7240 C.3   120  LEU120      0.0001
    149  N         59.4850    2.9290   10.2700 N.3   123  GLY123     -0.1210
    150  CA        58.4490    3.3030    9.3160 C.3   123  GLY123      0.1956
    151  C         58.2550    4.8060    9.0720 C.2   123  GLY123      0.2612
    152  O         57.4230    5.1940    8.2450 O.2   123  GLY123     -0.2717
    153  N         59.0150    5.6490    9.7740 N.am  124  GLY124     -0.1942
    154  CA        59.0620    7.0810    9.5000 C.3   124  GLY124      0.2014
    155  C         58.8320    8.0000   10.7030 C.2   124  GLY124      0.2638
    156  O         58.8940    9.2250   10.5680 O.2   124  GLY124     -0.2714
    157  N         58.5880    7.4130   11.8760 N.am  125  LEU125     -0.1977
    158  CA        58.2370    8.1640   13.0620 C.3   125  LEU125      0.1596
    159  C         59.4480    8.6780   13.8340 C.2   125  LEU125      0.2287
    160  O         59.3190    9.6530   14.5680 O.2   125  LEU125     -0.2864
    161  CB        57.3620    7.3110   13.9790 C.3   125  LEU125      0.0297
    162  CG        55.9280    7.1160   13.5070 C.3   125  LEU125      0.0022
    163  CD1       55.2870    5.9810   14.2500 C.3   125  LEU125      0.0001
    164  CD2       55.1560    8.3610   13.7610 C.3   125  LEU125      0.0001
    165  N         56.1570    7.5700   22.3100 N.3   132  ILE132     -0.1245
    166  CA        54.9980    6.6950   22.5320 C.3   132  ILE132      0.1561
    167  C         55.3280    5.4720   23.3970 C.2   132  ILE132      0.2260
    168  O         54.4730    4.9970   24.1450 O.2   132  ILE132     -0.2867
    169  CB        54.3800    6.2430   21.1820 C.3   132  ILE132      0.0252
    170  CG1       53.8630    7.4520   20.3790 C.3   132  ILE132      0.0019
    171  CG2       53.2670    5.2290   21.4120 C.3   132  ILE132      0.0019
    172  CD1       53.8520    7.2670   18.8680 C.3   132  ILE132      0.0001
    173  N         55.3260   14.7470   15.9280 N.3   214  HIS214     -0.1241
    174  CA        54.8400   13.9500   14.7950 C.3   214  HIS214      0.1621
    175  C         54.5030   14.8210   13.5820 C.2   214  HIS214      0.2264
    176  O         54.7230   14.4050   12.4580 O.2   214  HIS214     -0.2867
    177  CB        53.5970   13.1540   15.2560 C.3   214  HIS214      0.0745
    178  CG        52.7390   12.6370   14.1450 C.ar  214  HIS214      0.0817
    179  ND1       51.9220   13.4560   13.4020 N.ar  214  HIS214     -0.2268
    180  CD2       52.5380   11.3810   13.6820 C.ar  214  HIS214      0.1154
    181  CE1       51.2920   12.7310   12.4920 C.ar  214  HIS214      0.1986
    182  NE2       51.6460   11.4700   12.6440 N.ar  214  HIS214     -0.2212
    183  N         57.8090   15.7670   12.2460 N.3   217  ARG217     -0.1231
    184  CA        58.2360   14.5450   11.5850 C.3   217  ARG217      0.1694
    185  C         57.5920   14.4020   10.2090 C.2   217  ARG217      0.2592
    186  O         58.2750   14.0730    9.2570 O.2   217  ARG217     -0.2718
    187  CB        57.8940   13.3500   12.4580 C.3   217  ARG217      0.0321
    188  CG        58.7230   12.1730   12.2020 C.3   217  ARG217      0.0489
    189  CD        60.0440   12.1480   12.9230 C.3   217  ARG217      0.2205
    190  NE        60.8610   11.2010   12.1720 N.pl3 217  ARG217     -0.0865
    191  CZ        61.7580   11.5280   11.2600 C.cat 217  ARG217      0.5346
    192  NH1       62.0570   12.8030   11.0000 N.pl3 217  ARG217      0.1354
    193  NH2       62.3950   10.5640   10.6330 N.pl3 217  ARG217      0.1354
    194  N         56.2940   14.6970   10.1200 N.am  218  PHE218     -0.1976
    195  CA        55.5390   14.6220    8.8700 C.3   218  PHE218      0.1639
    196  C         56.0100   15.6390    7.8180 C.2   218  PHE218      0.2290
    197  O         55.7780   15.4440    6.6550 O.2   218  PHE218     -0.2864
    198  CB        54.0320   14.7650    9.1520 C.3   218  PHE218      0.0560
    199  CG        53.1810   14.9420    7.9170 C.ar  218  PHE218     -0.0200
    200  CD1       53.2590   14.0430    6.8730 C.ar  218  PHE218     -0.0042
    201  CD2       52.3020   16.0140    7.8080 C.ar  218  PHE218     -0.0042
    202  CE1       52.4970   14.2220    5.7410 C.ar  218  PHE218     -0.0003
    203  CE2       51.5350   16.1810    6.6850 C.ar  218  PHE218     -0.0003
    204  CZ        51.6320   15.2880    5.6490 C.ar  218  PHE218     -0.0000
    205  N         59.0150   13.9450    6.1990 N.3   221  MET221     -0.1245
    206  CA        58.6190   12.9090    5.2630 C.3   221  MET221      0.1570
    207  C         58.0990   13.4940    3.9560 C.2   221  MET221      0.2261
    208  O         58.5230   13.0590    2.8980 O.2   221  MET221     -0.2867
    209  CB        57.6050   11.9770    5.8960 C.3   221  MET221      0.0387
    210  CG        58.1450   11.3270    7.1360 C.3   221  MET221      0.0595
    211  SD        59.2630    9.9820    6.8250 S.3   221  MET221     -0.1393
    212  CE        61.0090   10.8190    6.8510 C.3   221  MET221      0.0692
    213  N         50.1520    8.8170    0.7120 N.3   230  PHE230     -0.1241
    214  CA        49.5650    8.9860    2.0470 C.3   230  PHE230      0.1605
    215  C         48.0410    8.8580    2.0060 C.2   230  PHE230      0.2264
    216  O         47.3960    9.5570    1.2260 O.2   230  PHE230     -0.2867
    217  CB        49.9930   10.3470    2.6290 C.3   230  PHE230      0.0534
    218  CG        51.4500   10.4020    3.0270 C.ar  230  PHE230     -0.0203
    219  CD1       52.4290   10.6590    2.0890 C.ar  230  PHE230     -0.0042
    220  CD2       51.8440   10.1690    4.3390 C.ar  230  PHE230     -0.0042
    221  CE1       53.7780   10.6870    2.4600 C.ar  230  PHE230     -0.0003
    222  CE2       53.1880   10.2000    4.7020 C.ar  230  PHE230     -0.0003
    223  CZ        54.1490   10.4560    3.7710 C.ar  230  PHE230     -0.0000
    224  N         44.3350   10.6520    6.2550 N.3   234  PHE234     -0.1241
    225  CA        45.5560   11.0970    6.9090 C.3   234  PHE234      0.1605
    226  C         45.9520   12.4630    6.3990 C.2   234  PHE234      0.2264
    227  O         46.1900   13.3520    7.1730 O.2   234  PHE234     -0.2867
    228  CB        46.6930   10.1140    6.6770 C.3   234  PHE234      0.0534
    229  CG        47.9740   10.5170    7.3340 C.ar  234  PHE234     -0.0203
    230  CD1       48.3380    9.9780    8.5510 C.ar  234  PHE234     -0.0042
    231  CD2       48.8140   11.4460    6.7400 C.ar  234  PHE234     -0.0042
    232  CE1       49.5150   10.3630    9.1770 C.ar  234  PHE234     -0.0003
    233  CE2       49.9840   11.8370    7.3540 C.ar  234  PHE234     -0.0003
    234  CZ        50.3350   11.2950    8.5770 C.ar  234  PHE234     -0.0000
@<TRIPOS>BOND
     1   213   214    1
     2   216   215    2
     3   215   214    1
     4   214   217    1
     5   219   221   ar
     6   219   218   ar
     7   221   223   ar
     8   217   218    1
     9   208   207    2
    10   218   220   ar
    11    10    11   ar
    12    10     8   ar
    13    11     9   ar
    14     8     6   ar
    15   223   222   ar
    16   207   206    1
    17     9     7   ar
    18     6     7   ar
    19     6     5    1
    20   220   222   ar
    21     5     2    1
    22    28    27    1
    23   206   209    1
    24   206   205    1
    25     3     2    1
    26     3     4    2
    27   204   202   ar
    28   204   203   ar
    29    26    25    2
    30    27    29    1
    31    27    24    1
    32   202   200   ar
    33   209   210    1
    34     2     1    1
    35    25    24    1
    36   224   225    1
    37   226   225    1
    38   226   227    2
    39   197   196    2
    40    24    23    1
    41   228   225    1
    42   228   229    1
    43   203   201   ar
    44   231   229   ar
    45   231   233   ar
    46   211   212    1
    47   211   210    1
    48   200   199   ar
    49    23    14   am
    50   229   230   ar
    51   233   234   ar
    52   201   199   ar
    53   196   195    1
    54    30    31    1
    55   199   198    1
    56    12    13    1
    57   152   151    2
    58    44    42    1
    59   230   232   ar
    60   234   232   ar
    61    14    13    1
    62    14    15    2
    63   195   198    1
    64   195   194    1
    65    31    32    1
    66    31    34    1
    67   151   150    1
    68   151   153   am
    69    13    16    1
    70   186   185    2
    71   150   149    1
    72    38    32   am
    73    38    39    1
    74    36    34    1
    75   154   153    1
    76   154   155    1
    77    40    39    1
    78    40    41    2
    79    42    39    1
    80    42    43    1
    81    32    33    2
    82    16    17    1
    83    34    35    1
    84   194   185   am
    85   185   184    1
    86    35    37    1
    87   156   155    2
    88    18    17   ar
    89    18    20   ar
    90    45    43    1
    91   193   191    1
    92    17    19   ar
    93   155   157   am
    94   192   191    1
    95   191   190    2
    96    20    22   ar
    97    19    21   ar
    98   184   183    1
    99   184   187    1
   100   157   158    1
   101    22    21   ar
   102    46    47    1
   103   190   189    1
   104   188   187    1
   105   188   189    1
   106   176   175    2
   107   139   138    2
   108   181   182   ar
   109   181   179   ar
   110   182   180   ar
   111   158   159    1
   112   158   161    1
   113   138   140   am
   114   138   137    1
   115   144   143    2
   116   179   178   ar
   117    47    48    1
   118    47    50    1
   119   162   164    1
   120   162   161    1
   121   162   163    1
   122   175   174    1
   123    48    49    2
   124   180   178   ar
   125   159   160    2
   126   137   134    1
   127    51    52    1
   128   178   177    1
   129   143   142    1
   130    84    83    1
   131   142   141    1
   132   142   145    1
   133    83    82    1
   134   174   177    1
   135   174   173    1
   136   131   130    1
   137    56    57    1
   138    56    55    1
   139   147   146    1
   140    52    55    1
   141    52    53    1
   142    58    57    1
   143    58    59    2
   144   128   127    2
   145   134   133    1
   146   134   135    1
   147   129   130    1
   148   129   126    1
   149    61    59    1
   150   136   135    2
   151    75    76    1
   152    75    74    1
   153   145   146    1
   154   127   133   am
   155   127   126    1
   156   130   132    1
   157    62    53   am
   158    62    63    1
   159    59    60    1
   160   146   148    1
   161    53    54    2
   162    73    74    1
   163    73    70    1
   164    82    81    2
   165    64    63    1
   166    64    65    2
   167    69    70    1
   168    66    63    1
   169    66    68    1
   170    66    67    1
   171   126   125    1
   172    70    71    1
   173    81    78    1
   174   125   120   am
   175    71    72    2
   176   172   170    1
   177   120   121    2
   178   120   119    1
   179   101    99    1
   180    78    77    1
   181    78    79    1
   182   124   122    1
   183   119   122    1
   184   119   118    1
   185    79    80    2
   186    79    85   am
   187    90    89    1
   188   117   115    1
   189    85    86    1
   190    99   100    1
   191    99    98    2
   192   170   169    1
   193   122   123    1
   194   106   103    1
   195    97    98    1
   196    97    96    1
   197   116   115    1
   198    86    89    1
   199    86    87    1
   200   115   114    2
   201   169   171    1
   202   169   166    1
   203    95    96    1
   204    95    92    1
   205   103   102    1
   206   103   104    1
   207   114   113    1
   208   102    93   am
   209    87    88    2
   210   165   166    1
   211   166   167    1
   212    93    92    1
   213    93    94    2
   214   113   112    1
   215    92    91    1
   216   104   105    2
   217   167   168    2
   218   111   112    1
   219   111   108    1
   220   110   109    2
   221   109   108    1
   222   108   107    1
