@<TRIPOS>MOLECULE
tmp/1r6nA00.pdb
 113 113 0 0 0
SMALL
GASTEIGER

@<TRIPOS>ATOM
      1  N         64.1300    7.0820    0.9640 N.3    19  TYR19      -0.1241
      2  CA        63.4040    7.2760    2.2130 C.3    19  TYR19       0.1605
      3  C         64.2830    7.9970    3.2380 C.2    19  TYR19       0.2264
      4  O         63.8440    8.9500    3.8700 O.2    19  TYR19      -0.2867
      5  CB        62.9610    5.9370    2.8040 C.3    19  TYR19       0.0534
      6  CG        62.3680    6.0870    4.1850 C.ar   19  TYR19      -0.0201
      7  CD1       61.1110    6.6650    4.3600 C.ar   19  TYR19      -0.0009
      8  CD2       63.0990    5.7440    5.3170 C.ar   19  TYR19      -0.0009
      9  CE1       60.6020    6.9050    5.6260 C.ar   19  TYR19       0.0417
     10  CE2       62.6020    5.9820    6.5910 C.ar   19  TYR19       0.0417
     11  CZ        61.3540    6.5660    6.7360 C.ar   19  TYR19       0.1957
     12  OH        60.8560    6.8400    7.9880 O.3    19  TYR19      -0.2866
     13  N         60.9100   13.1650   -5.0050 N.3    29  HIS29      -0.1241
     14  CA        59.7220   12.3750   -4.7200 C.3    29  HIS29       0.1621
     15  C         59.1430   11.7630   -5.9980 C.2    29  HIS29       0.2264
     16  O         58.6240   10.6500   -5.9800 O.2    29  HIS29      -0.2867
     17  CB        58.6970   13.2460   -3.9960 C.3    29  HIS29       0.0745
     18  CG        59.2200   13.8170   -2.7190 C.ar   29  HIS29       0.0817
     19  ND1       59.9700   13.0750   -1.8310 N.ar   29  HIS29      -0.2268
     20  CD2       59.1180   15.0580   -2.1830 C.ar   29  HIS29       0.1154
     21  CE1       60.3060   13.8330   -0.8040 C.ar   29  HIS29       0.1986
     22  NE2       59.8030   15.0400   -0.9930 N.ar   29  HIS29      -0.2212
     23  N         61.1960    9.0060   -6.6740 N.3    32  HIS32      -0.1226
     24  CA        60.8910    7.9580   -5.7030 C.3    32  HIS32       0.1752
     25  C         59.6870    7.1290   -6.2130 C.2    32  HIS32       0.2596
     26  O         59.6910    5.8910   -6.1500 O.2    32  HIS32      -0.2718
     27  CB        60.6180    8.6040   -4.3380 C.3    32  HIS32       0.0759
     28  CG        60.6470    7.6440   -3.1960 C.ar   32  HIS32       0.0818
     29  ND1       60.9060    8.0400   -1.8990 N.ar   32  HIS32      -0.2268
     30  CD2       60.4240    6.3100   -3.1450 C.ar   32  HIS32       0.1154
     31  CE1       60.8420    6.9910   -1.1020 C.ar   32  HIS32       0.1986
     32  NE2       60.5510    5.9300   -1.8330 N.ar   32  HIS32      -0.2212
     33  N         58.6670    7.8070   -6.7350 N.am   33  TRP33      -0.1976
     34  CA        57.5260    7.0900   -7.2920 C.3    33  TRP33       0.1640
     35  C         57.9140    6.2620   -8.5280 C.2    33  TRP33       0.2290
     36  O         57.3580    5.1920   -8.7560 O.2    33  TRP33      -0.2864
     37  CB        56.3790    8.0530   -7.6190 C.3    33  TRP33       0.0576
     38  CG        55.5990    8.3770   -6.3810 C.ar   33  TRP33       0.0006
     39  CD1       55.5390    9.5770   -5.7280 C.ar   33  TRP33       0.0946
     40  CD2       54.8700    7.4500   -5.5800 C.ar   33  TRP33       0.0152
     41  NE1       54.8260    9.4500   -4.5670 N.ar   33  TRP33      -0.2442
     42  CE2       54.3980    8.1540   -4.4500 C.ar   33  TRP33       0.0810
     43  CE3       54.5690    6.0870   -5.7060 C.ar   33  TRP33       0.0012
     44  CZ2       53.6310    7.5380   -3.4430 C.ar   33  TRP33       0.0191
     45  CZ3       53.8060    5.4700   -4.7060 C.ar   33  TRP33       0.0001
     46  CH2       53.3460    6.1970   -3.5910 C.ar   33  TRP33       0.0015
     47  N         59.2210    3.0570   -7.3470 N.3    36  ILE36      -0.1245
     48  CA        58.1990    2.1680   -6.8180 C.3    36  ILE36       0.1561
     49  C         57.6550    1.3760   -8.0080 C.2    36  ILE36       0.2260
     50  O         57.3430    0.1820   -7.8850 O.2    36  ILE36      -0.2867
     51  CB        57.0400    2.9470   -6.1430 C.3    36  ILE36       0.0252
     52  CG1       57.4990    3.5050   -4.7920 C.3    36  ILE36       0.0019
     53  CG2       55.8150    2.0340   -5.9740 C.3    36  ILE36       0.0019
     54  CD1       57.6950    2.4530   -3.7170 C.3    36  ILE36       0.0001
     55  N         58.2190   13.9980    1.9190 N.3    94  LEU94      -0.1231
     56  CA        57.8540   12.6560    1.4920 C.3    94  LEU94       0.1693
     57  C         56.4090   12.3430    1.8880 C.2    94  LEU94       0.2591
     58  O         55.6760   11.6730    1.1680 O.2    94  LEU94      -0.2718
     59  CB        58.7910   11.6320    2.1250 C.3    94  LEU94       0.0284
     60  CG        58.4940   10.1930    1.7140 C.3    94  LEU94       0.0019
     61  CD1       59.7730    9.5440    1.2290 C.3    94  LEU94       0.0001
     62  CD2       57.8890    9.4230    2.8900 C.3    94  LEU94       0.0001
     63  N         56.0060   12.8590    3.0360 N.am   95  GLN95      -0.1979
     64  CA        54.6710   12.6400    3.5450 C.3    95  GLN95       0.1601
     65  C         53.6480   13.4310    2.7410 C.2    95  GLN95       0.2287
     66  O         52.5740   12.9080    2.4240 O.2    95  GLN95      -0.2864
     67  CB        54.6340   13.0290    5.0250 C.3    95  GLN95       0.0394
     68  CG        53.2760   12.9300    5.6830 C.3    95  GLN95       0.0908
     69  CD        53.3530   13.0650    7.2050 C.2    95  GLN95       0.2608
     70  OE1       52.3350   13.3100    7.8720 O.2    95  GLN95      -0.2717
     71  NE2       54.5610   12.8940    7.7620 N.am   95  GLN95      -0.0878
     72  N         53.6880   14.1270   -0.2580 N.3    97  THR97      -0.1203
     73  CA        53.5090   13.5280   -1.5760 C.3    97  THR97       0.1994
     74  C         53.2700   12.0050   -1.5770 C.2    97  THR97       0.2619
     75  O         53.5770   11.3220   -2.5550 O.2    97  THR97      -0.2717
     76  CB        54.7260   13.8120   -2.4420 C.3    97  THR97       0.1784
     77  OG1       55.8460   13.0960   -1.9110 O.3    97  THR97      -0.2211
     78  CG2       55.0390   15.3130   -2.4410 C.3    97  THR97       0.0376
     79  N         52.7210   11.4820   -0.4840 N.am   98  SER98      -0.1937
     80  CA        52.4370   10.0550   -0.3580 C.3    98  SER98       0.2055
     81  C         51.0470    9.7470   -0.8950 C.2    98  SER98       0.2643
     82  O         50.2140   10.6330   -1.0250 O.2    98  SER98      -0.2714
     83  CB        52.5030    9.6350    1.1150 C.3    98  SER98       0.2130
     84  OG        51.4530   10.2280    1.8680 O.3    98  SER98      -0.2179
     85  N         50.8040    8.4830   -1.2150 N.am   99  TYR99      -0.1959
     86  CA        49.4950    8.0610   -1.6970 C.3    99  TYR99       0.1771
     87  C         48.5600    8.1280   -0.4770 C.2    99  TYR99       0.2619
     88  O         47.3720    8.4500   -0.5840 O.2    99  TYR99      -0.2715
     89  CB        49.5790    6.6360   -2.2260 C.3    99  TYR99       0.0574
     90  CG        48.3060    6.1260   -2.8740 C.ar   99  TYR99      -0.0198
     91  CD1       47.8550    6.6510   -4.0750 C.ar   99  TYR99      -0.0009
     92  CD2       47.5460    5.1220   -2.2720 C.ar   99  TYR99      -0.0009
     93  CE1       46.6880    6.2010   -4.6590 C.ar   99  TYR99       0.0417
     94  CE2       46.3710    4.6590   -2.8540 C.ar   99  TYR99       0.0417
     95  CZ        45.9480    5.2040   -4.0460 C.ar   99  TYR99       0.1957
     96  OH        44.7800    4.7600   -4.6320 O.3    99  TYR99      -0.2866
     97  N         49.1210    7.8420    0.6910 N.am  100  GLU100     -0.1963
     98  CA        48.3710    7.8760    1.9360 C.3   100  GLU100      0.1733
     99  C         47.7060    9.2300    2.1200 C.2   100  GLU100      0.2616
    100  O         46.5210    9.3050    2.4380 O.2   100  GLU100     -0.2715
    101  CB        49.3040    7.6140    3.1180 C.3   100  GLU100      0.0429
    102  CG        48.6230    7.6380    4.4760 C.3   100  GLU100      0.1163
    103  CD        47.7020    6.4390    4.6880 C.2   100  GLU100      0.3649
    104  OE1       47.6200    5.5710    3.7820 O.co2 100  GLU100     -0.2457
    105  OE2       47.0660    6.3690    5.7650 O.co2 100  GLU100     -0.2457
    106  N         48.4760   10.2980    1.9280 N.am  101  MET101     -0.1977
    107  CA        47.9570   11.6470    2.0790 C.3   101  MET101      0.1605
    108  C         47.0130   12.0210    0.9510 C.2   101  MET101      0.2287
    109  O         46.0570   12.7640    1.1530 O.2   101  MET101     -0.2864
    110  CB        49.0970   12.6600    2.1290 C.3   101  MET101      0.0413
    111  CG        48.7180   13.9420    2.8560 C.3   101  MET101      0.0598
    112  SD        48.9080   13.7520    4.6530 S.3   101  MET101     -0.1393
    113  CE        47.7670   12.4140    5.0730 C.3   101  MET101      0.0692
@<TRIPOS>BOND
     1    36    35    2
     2    35    34    1
     3    49    50    2
     4    49    48    1
     5    37    34    1
     6    37    38    1
     7    47    48    1
     8    34    33    1
     9    48    51    1
    10    33    25   am
    11    23    24    1
    12    38    39   ar
    13    38    40   ar
    14    25    26    2
    15    25    24    1
    16    51    53    1
    17    51    52    1
    18    15    16    2
    19    15    14    1
    20    39    41   ar
    21    43    40   ar
    22    43    45   ar
    23    24    27    1
    24    40    42   ar
    25    13    14    1
    26    52    54    1
    27    14    17    1
    28    45    46   ar
    29    93    91   ar
    30    93    95   ar
    31    96    95    1
    32    41    42   ar
    33    42    44   ar
    34    27    28    1
    35    91    90   ar
    36    95    94   ar
    37    17    18    1
    38    46    44   ar
    39    28    30   ar
    40    28    29   ar
    41    30    32   ar
    42    90    92   ar
    43    90    89    1
    44    94    92   ar
    45    18    20   ar
    46    18    19   ar
    47    75    74    2
    48    76    78    1
    49    76    77    1
    50    76    73    1
    51    89    86    1
    52    20    22   ar
    53    29    31   ar
    54    32    31   ar
    55    19    21   ar
    56    86    85    1
    57    86    87    1
    58    74    73    1
    59    74    79   am
    60    73    72    1
    61    85    81   am
    62    82    81    2
    63    22    21   ar
    64    81    80    1
    65    88    87    2
    66    79    80    1
    67    87    97   am
    68    80    83    1
    69    97    98    1
    70   108   109    2
    71   108   107    1
    72     1     2    1
    73    83    84    1
    74    58    57    2
    75    61    60    1
    76    56    57    1
    77    56    55    1
    78    56    59    1
    79    60    59    1
    80    60    62    1
    81    57    63   am
    82   106   107    1
    83   106    99   am
    84    98    99    1
    85    98   101    1
    86   107   110    1
    87    99   100    2
    88   110   111    1
    89     2     5    1
    90     2     3    1
    91    66    65    2
    92    65    64    1
    93     5     6    1
    94   111   112    1
    95    63    64    1
    96   101   102    1
    97     3     4    2
    98    64    67    1
    99   104   103   ar
   100     6     7   ar
   101     6     8   ar
   102     7     9   ar
   103   102   103    1
   104   112   113    1
   105   103   105   ar
   106    67    68    1
   107     8    10   ar
   108     9    11   ar
   109    68    69    1
   110    10    11   ar
   111    11    12    1
   112    69    71   am
   113    69    70    2
