@<TRIPOS>MOLECULE
tmp/1r6zC00.pdb
 179 175 0 0 0
SMALL
GASTEIGER

@<TRIPOS>ATOM
      1  N         44.0790   96.7000    5.5910 N.3    10  ASN10      -0.1240
      2  CA        43.2940   97.7360    4.9530 C.3    10  ASN10       0.1653
      3  C         42.8390   98.8230    5.9200 C.2    10  ASN10       0.2266
      4  O         42.4680   98.5390    7.0540 O.2    10  ASN10      -0.2867
      5  CB        42.0850   97.1260    4.2600 C.3    10  ASN10       0.1155
      6  CG        41.4860   98.0550    3.2330 C.2    10  ASN10       0.2627
      7  OD1       42.1720   98.4690    2.2960 O.2    10  ASN10      -0.2716
      8  ND2       40.2080   98.3960    3.3990 N.am   10  ASN10      -0.0877
      9  N         40.1420  100.4890    6.4140 N.3    12  ASP12      -0.1225
     10  CA        38.8480  100.4690    7.0830 C.3    12  ASP12       0.1805
     11  C         38.9100   99.5720    8.3220 C.2    12  ASP12       0.2597
     12  O         38.0200   99.5970    9.1780 O.2    12  ASP12      -0.2718
     13  CB        37.7450  100.0080    6.1160 C.3    12  ASP12       0.1424
     14  CG        38.0880   98.7200    5.3920 C.2    12  ASP12       0.3668
     15  OD1       39.2210   98.2200    5.5620 O.co2  12  ASP12      -0.2456
     16  OD2       37.2170   98.2180    4.6480 O.co2  12  ASP12      -0.2456
     17  N         39.9880   98.7990    8.4180 N.am   13  LYS13      -0.1979
     18  CA        40.1940   97.8860    9.5370 C.3    13  LYS13       0.1596
     19  C         40.7990   98.6080   10.7470 C.2    13  LYS13       0.2287
     20  O         41.1310   99.7940   10.6790 O.2    13  LYS13      -0.2864
     21  CB        41.1010   96.7190    9.1010 C.3    13  LYS13       0.0298
     22  CG        40.5850   95.9340    7.8870 C.3    13  LYS13       0.0038
     23  CD        39.2790   95.2200    8.1950 C.3    13  LYS13       0.0206
     24  CE        38.2170   95.4890    7.1450 C.3    13  LYS13       0.1093
     25  NZ        38.5330   94.8520    5.8520 N.3    13  LYS13      -0.1314
     26  N         45.5080   95.4320   -1.6360 N.3    42  GLU42      -0.1245
     27  CA        45.2540   94.1410   -2.2480 C.3    42  GLU42       0.1567
     28  C         45.8270   94.1560   -3.6560 C.2    42  GLU42       0.2260
     29  O         46.1170   93.1090   -4.2330 O.2    42  GLU42      -0.2867
     30  CB        43.7560   93.8360   -2.3030 C.3    42  GLU42       0.0388
     31  CG        43.0360   94.4750   -3.4560 C.3    42  GLU42       0.1160
     32  CD        42.8330   95.9500   -3.2560 C.2    42  GLU42       0.3649
     33  OE1       43.6690   96.5770   -2.5800 O.co2  42  GLU42      -0.2457
     34  OE2       41.8420   96.4900   -3.7830 O.co2  42  GLU42      -0.2457
     35  N         44.0670   90.6050    4.4850 N.3    60  TRP60      -0.1227
     36  CA        43.0030   90.8300    3.5120 C.3    60  TRP60       0.1737
     37  C         41.9790   89.7120    3.5820 C.2    60  TRP60       0.2595
     38  O         42.1680   88.7510    4.3230 O.2    60  TRP60      -0.2718
     39  CB        43.5620   90.9300    2.0980 C.3    60  TRP60       0.0564
     40  CG        42.5600   91.4900    1.1320 C.ar   60  TRP60       0.0003
     41  CD1       41.6740   90.7910    0.3450 C.ar   60  TRP60       0.0946
     42  CD2       42.2990   92.8700    0.8920 C.ar   60  TRP60       0.0152
     43  NE1       40.8840   91.6550   -0.3660 N.ar   60  TRP60      -0.2442
     44  CE2       41.2440   92.9390   -0.0490 C.ar   60  TRP60       0.0810
     45  CE3       42.8550   94.0620    1.3760 C.ar   60  TRP60       0.0012
     46  CZ2       40.7370   94.1590   -0.5110 C.ar   60  TRP60       0.0191
     47  CZ3       42.3500   95.2690    0.9140 C.ar   60  TRP60       0.0001
     48  CH2       41.3010   95.3070   -0.0190 C.ar   60  TRP60       0.0015
     49  N         40.8790   89.8530    2.8510 N.am   61  ALA61      -0.1980
     50  CA        39.8560   88.8200    2.8250 C.3    61  ALA61       0.1597
     51  C         40.4930   87.6330    2.1120 C.2    61  ALA61       0.2287
     52  O         41.2810   87.8050    1.1730 O.2    61  ALA61      -0.2864
     53  CB        38.6380   89.3000    2.0640 C.3    61  ALA61       0.0319
     54  N         39.6560   85.6900   -0.1860 N.3    63  ASP63      -0.1225
     55  CA        39.5010   85.5720   -1.6310 C.3    63  ASP63       0.1805
     56  C         40.7000   85.9540   -2.4880 C.2    63  ASP63       0.2597
     57  O         40.8390   85.4390   -3.6010 O.2    63  ASP63      -0.2718
     58  CB        38.2460   86.3390   -2.1130 C.3    63  ASP63       0.1424
     59  CG        38.3820   87.8630   -2.0090 C.2    63  ASP63       0.3668
     60  OD1       38.7450   88.3550   -0.9230 O.co2  63  ASP63      -0.2456
     61  OD2       38.1050   88.5710   -3.0040 O.co2  63  ASP63      -0.2456
     62  N         41.5710   86.8260   -1.9820 N.am   64  ARG64      -0.1979
     63  CA        42.7490   87.2660   -2.7450 C.3    64  ARG64       0.1597
     64  C         43.9690   86.3600   -2.6500 C.2    64  ARG64       0.2287
     65  O         44.7740   86.2940   -3.5810 O.2    64  ARG64      -0.2864
     66  CB        43.1820   88.6680   -2.3060 C.3    64  ARG64       0.0334
     67  CG        42.2710   89.7830   -2.7370 C.3    64  ARG64       0.0492
     68  CD        42.5970   90.2760   -4.1200 C.3    64  ARG64       0.2205
     69  NE        41.5240   91.1340   -4.6040 N.pl3  64  ARG64      -0.0865
     70  CZ        41.4250   91.5830   -5.8520 C.cat  64  ARG64       0.5346
     71  NH1       42.3550   91.2630   -6.7560 N.pl3  64  ARG64       0.1354
     72  NH2       40.3690   92.3090   -6.2110 N.pl3  64  ARG64       0.1354
     73  N         33.5000   88.0220    7.9580 N.3   109  GLU109     -0.1245
     74  CA        32.8330   89.3020    7.6910 C.3   109  GLU109      0.1567
     75  C         31.6590   89.1300    6.7410 C.2   109  GLU109      0.2260
     76  O         31.6870   88.2850    5.8470 O.2   109  GLU109     -0.2867
     77  CB        33.7720   90.3140    7.0270 C.3   109  GLU109      0.0388
     78  CG        35.1950   90.3840    7.5150 C.3   109  GLU109      0.1160
     79  CD        36.0210   91.2850    6.6130 C.2   109  GLU109      0.3649
     80  OE1       35.7840   91.2360    5.3840 O.co2 109  GLU109     -0.2457
     81  OE2       36.8960   92.0310    7.1110 O.co2 109  GLU109     -0.2457
     82  N         28.1450  102.3750   -0.4490 N.3   148  ASN148     -0.1240
     83  CA        29.1900  102.3810   -1.4520 C.3   148  ASN148      0.1653
     84  C         28.8030  101.6940   -2.7650 C.2   148  ASN148      0.2266
     85  O         28.5870  100.4900   -2.8090 O.2   148  ASN148     -0.2867
     86  CB        30.4350  101.7450   -0.8540 C.3   148  ASN148      0.1155
     87  CG        31.5920  101.7900   -1.7860 C.2   148  ASN148      0.2627
     88  OD1       31.5750  102.5110   -2.7910 O.2   148  ASN148     -0.2716
     89  ND2       32.6290  101.0270   -1.4630 N.am  148  ASN148     -0.0877
     90  N         32.2480  100.0170   -5.0820 N.3   151  GLU151     -0.1231
     91  CA        32.7350   98.6690   -4.8880 C.3   151  GLU151      0.1684
     92  C         31.6160   97.6650   -5.0710 C.2   151  GLU151      0.2434
     93  O         30.5780   97.7660   -4.4150 O.2   151  GLU151     -0.2733
     94  CB        33.3320   98.5280   -3.5020 C.3   151  GLU151      0.0402
     95  CG        34.6870   99.1840   -3.3810 C.3   151  GLU151      0.1161
     96  CD        35.7070   98.5890   -4.3230 C.2   151  GLU151      0.3649
     97  OE1       35.7320   97.3500   -4.4870 O.co2 151  GLU151     -0.2457
     98  OE2       36.4980   99.3640   -4.8900 O.co2 151  GLU151     -0.2457
     99  N         31.8190   96.6760   -5.9700 N.am  152  PRO152     -0.2718
    100  CA        30.8600   95.6060   -6.3000 C.3   152  PRO152      0.1535
    101  C         30.4960   94.7420   -5.1040 C.2   152  PRO152      0.2599
    102  O         29.4300   94.1350   -5.0560 O.2   152  PRO152     -0.2715
    103  CB        31.5800   94.8210   -7.4050 C.3   152  PRO152      0.0310
    104  CG        33.0360   95.0380   -7.0820 C.3   152  PRO152      0.0237
    105  CD        33.0780   96.4970   -6.7210 C.3   152  PRO152      0.0939
    106  N         31.4060   94.7010   -4.1430 N.am  153  TYR153     -0.1960
    107  CA        31.2210   93.9570   -2.9130 C.3   153  TYR153      0.1771
    108  C         29.8800   94.2980   -2.2860 C.2   153  TYR153      0.2619
    109  O         29.1460   93.4340   -1.8330 O.2   153  TYR153     -0.2715
    110  CB        32.3200   94.3500   -1.9390 C.3   153  TYR153      0.0574
    111  CG        32.3160   93.6090   -0.6280 C.ar  153  TYR153     -0.0198
    112  CD1       32.6010   92.2410   -0.5810 C.ar  153  TYR153     -0.0009
    113  CD2       32.0980   94.2830    0.5730 C.ar  153  TYR153     -0.0009
    114  CE1       32.6820   91.5610    0.6250 C.ar  153  TYR153      0.0417
    115  CE2       32.1740   93.6130    1.7980 C.ar  153  TYR153      0.0417
    116  CZ        32.4740   92.2440    1.8140 C.ar  153  TYR153      0.1957
    117  OH        32.5970   91.5600    3.0060 O.3   153  TYR153     -0.2866
    118  N         29.5700   95.5810   -2.2600 N.am  154  PHE154     -0.1974
    119  CA        28.3510   96.0580   -1.6470 C.3   154  PHE154      0.1639
    120  C         27.1270   95.8610   -2.4950 C.2   154  PHE154      0.2290
    121  O         26.0210   95.8590   -1.9850 O.2   154  PHE154     -0.2864
    122  CB        28.4950   97.5500   -1.3250 C.3   154  PHE154      0.0560
    123  CG        29.5970   97.8610   -0.3500 C.ar  154  PHE154     -0.0200
    124  CD1       29.3140   98.0200    1.0080 C.ar  154  PHE154     -0.0042
    125  CD2       30.9130   97.9870   -0.7840 C.ar  154  PHE154     -0.0042
    126  CE1       30.3220   98.3000    1.9230 C.ar  154  PHE154     -0.0003
    127  CE2       31.9240   98.2680    0.1250 C.ar  154  PHE154     -0.0003
    128  CZ        31.6250   98.4260    1.4860 C.ar  154  PHE154     -0.0000
    129  N         33.4380   96.4590   10.9240 N.3   228  TRP228     -0.1241
    130  CA        34.4360   97.5060   11.0420 C.3   228  TRP228      0.1605
    131  C         33.7970   98.8930   11.1030 C.2   228  TRP228      0.2264
    132  O         34.3290   99.8080   11.7220 O.2   228  TRP228     -0.2867
    133  CB        35.4090   97.4070    9.8550 C.3   228  TRP228      0.0550
    134  CG        34.7530   97.5700    8.5100 C.ar  228  TRP228      0.0003
    135  CD1       34.3640   98.7390    7.9230 C.ar  228  TRP228      0.0946
    136  CD2       34.3700   96.5230    7.6080 C.ar  228  TRP228      0.0152
    137  NE1       33.7620   98.4860    6.7160 N.ar  228  TRP228     -0.2442
    138  CE2       33.7520   97.1370    6.4960 C.ar  228  TRP228      0.0810
    139  CE3       34.4940   95.1250    7.6330 C.ar  228  TRP228      0.0012
    140  CZ2       33.2580   96.4120    5.4210 C.ar  228  TRP228      0.0191
    141  CZ3       34.0050   94.4010    6.5620 C.ar  228  TRP228      0.0001
    142  CH2       33.3910   95.0480    5.4680 C.ar  228  TRP228      0.0015
    143  N         33.3970   87.0030    3.6100 N.3   258  GLY258     -0.1225
    144  CA        34.8430   87.0400    3.6430 C.3   258  GLY258      0.1811
    145  C         35.4730   86.6960    4.9700 C.2   258  GLY258      0.2280
    146  O         34.9110   86.9330    6.0360 O.2   258  GLY258     -0.2866
    147  N         33.2270   83.4360   -0.2280 N.3   328  MET328     -0.1245
    148  CA        33.8100   83.6540   -1.5320 C.3   328  MET328      0.1570
    149  C         34.8090   82.5800   -1.9000 C.2   328  MET328      0.2261
    150  O         35.4220   81.9570   -1.0420 O.2   328  MET328     -0.2867
    151  CB        34.5410   84.9930   -1.5670 C.3   328  MET328      0.0387
    152  CG        33.7400   86.1780   -1.0960 C.3   328  MET328      0.0595
    153  SD        34.7100   87.6970   -1.0690 S.3   328  MET328     -0.1393
    154  CE        35.6980   87.4310    0.3720 C.3   328  MET328      0.0692
    155  N         35.9500   90.1910   -9.8170 N.3   338  TRP338     -0.1241
    156  CA        35.7310   91.4590   -9.1660 C.3   338  TRP338      0.1605
    157  C         35.9300   92.6270  -10.1280 C.2   338  TRP338      0.2264
    158  O         35.0520   93.4670  -10.2700 O.2   338  TRP338     -0.2867
    159  CB        36.6760   91.5850   -7.9870 C.3   338  TRP338      0.0550
    160  CG        36.2810   90.7610   -6.7910 C.ar  338  TRP338      0.0003
    161  CD1       37.0950   89.9620   -6.0410 C.ar  338  TRP338      0.0946
    162  CD2       35.0070   90.7440   -6.1480 C.ar  338  TRP338      0.0152
    163  NE1       36.4120   89.4590   -4.9680 N.ar  338  TRP338     -0.2442
    164  CE2       35.1270   89.9230   -5.0070 C.ar  338  TRP338      0.0810
    165  CE3       33.7680   91.3510   -6.4210 C.ar  338  TRP338      0.0012
    166  CZ2       34.0590   89.6930   -4.1320 C.ar  338  TRP338      0.0191
    167  CZ3       32.7030   91.1240   -5.5510 C.ar  338  TRP338      0.0001
    168  CH2       32.8590   90.2990   -4.4150 C.ar  338  TRP338      0.0015
    169  N         33.0580   95.2000  -11.1650 N.3   342  ARG342     -0.1245
    170  CA        33.2240   96.5790  -10.7260 C.3   342  ARG342      0.1563
    171  C         32.7600   97.4680  -11.8720 C.2   342  ARG342      0.2260
    172  O         31.7260   98.1350  -11.7810 O.2   342  ARG342     -0.2867
    173  CB        34.6940   96.8890  -10.4060 C.3   342  ARG342      0.0307
    174  CG        34.9020   98.1000   -9.4750 C.3   342  ARG342      0.0489
    175  CD        36.3500   98.6500   -9.4720 C.3   342  ARG342      0.2205
    176  NE        37.3760   97.6790   -9.0640 N.pl3 342  ARG342     -0.0865
    177  CZ        37.4710   97.1280   -7.8500 C.cat 342  ARG342      0.5346
    178  NH1       36.6010   97.4470   -6.9020 N.pl3 342  ARG342      0.1354
    179  NH2       38.4320   96.2490   -7.5810 N.pl3 342  ARG342      0.1354
@<TRIPOS>BOND
     1   171   172    2
     2   171   170    1
     3   169   170    1
     4   170   173    1
     5   173   174    1
     6   158   157    2
     7   157   156    1
     8   155   156    1
     9   174   175    1
    10   175   176    1
    11   156   159    1
    12   176   177    2
    13   159   160    1
    14   177   179    1
    15   177   178    1
    16   103   104    1
    17   103   100    1
    18   104   105    1
    19   160   162   ar
    20   160   161   ar
    21    71    70    1
    22   105    99    1
    23   165   162   ar
    24   165   167   ar
    25   100    99    1
    26   100   101    1
    27    72    70    1
    28   162   164   ar
    29   161   163   ar
    30    99    92   am
    31    70    69    2
    32   167   168   ar
    33   101   102    2
    34   101   106   am
    35    90    91    1
    36    92    91    1
    37    92    93    2
    38   164   163   ar
    39   164   166   ar
    40    98    96   ar
    41    91    94    1
    42    69    68    1
    43    97    96   ar
    44   168   166   ar
    45    96    95    1
    46    29    28    2
    47   106   107    1
    48    68    67    1
    49    34    32   ar
    50    28    27    1
    51    57    56    2
    52    65    64    2
    53    94    95    1
    54    31    32    1
    55    31    30    1
    56    32    33   ar
    57    61    59   ar
    58   107   108    1
    59   107   110    1
    60    85    84    2
    61    88    87    2
    62    84    83    1
    63    63    64    1
    64    63    66    1
    65    63    62    1
    66    67    66    1
    67   120   121    2
    68   120   119    1
    69    56    62   am
    70    56    55    1
    71    30    27    1
    72   108   118   am
    73   108   109    2
    74   118   119    1
    75    27    26    1
    76    58    59    1
    77    58    55    1
    78    59    60   ar
    79   110   111    1
    80   149   148    1
    81   149   150    2
    82    87    89   am
    83    87    86    1
    84   119   122    1
    85    55    54    1
    86   151   148    1
    87   151   152    1
    88   148   147    1
    89    83    86    1
    90    83    82    1
    91   122   123    1
    92   152   153    1
    93   153   154    1
    94   125   123   ar
    95   125   127   ar
    96   111   112   ar
    97   111   113   ar
    98   112   114   ar
    99    46    44   ar
   100    46    48   ar
   101    43    44   ar
   102    43    41   ar
   103   123   124   ar
   104    44    42   ar
   105    48    47   ar
   106   127   128   ar
   107    41    40   ar
   108   113   115   ar
   109   114   116   ar
   110    42    40   ar
   111    42    45   ar
   112    47    45   ar
   113   124   126   ar
   114    40    39    1
   115    52    51    2
   116   128   126   ar
   117   115   116   ar
   118   116   117    1
   119    53    50    1
   120    39    36    1
   121    51    50    1
   122     7     6    2
   123    50    49    1
   124    49    37   am
   125     6     8   am
   126     6     5    1
   127    36    37    1
   128    36    35    1
   129    37    38    2
   130   143   144    1
   131   144   145    1
   132     5     2    1
   133    16    14   ar
   134     2     1    1
   135     2     3    1
   136   145   146    2
   137    80    79   ar
   138    14    15   ar
   139    14    13    1
   140   140   142   ar
   141   140   138   ar
   142   142   141   ar
   143    76    75    2
   144    25    24    1
   145     3     4    2
   146    13    10    1
   147     9    10    1
   148   138   137   ar
   149   138   136   ar
   150   141   139   ar
   151    79    81   ar
   152    79    78    1
   153   137   135   ar
   154    75    74    1
   155    77    78    1
   156    77    74    1
   157    10    11    1
   158    24    23    1
   159   136   139   ar
   160   136   134   ar
   161    74    73    1
   162    22    23    1
   163    22    21    1
   164   135   134   ar
   165    11    17   am
   166    11    12    2
   167    17    18    1
   168   134   133    1
   169    21    18    1
   170    18    19    1
   171   133   130    1
   172    20    19    2
   173   129   130    1
   174   130   131    1
   175   131   132    2
