@<TRIPOS>MOLECULE
tmp/1r78A00.pdb
 166 159 0 0 0
SMALL
GASTEIGER

@<TRIPOS>ATOM
      1  N         14.5310  -13.7010    6.2730 N.3    10  ILE10      -0.1231
      2  CA        13.5360  -12.6590    6.5580 C.3    10  ILE10       0.1692
      3  C         13.7120  -11.4790    5.5920 C.2    10  ILE10       0.2593
      4  O         12.7450  -11.0000    5.0070 O.2    10  ILE10      -0.2718
      5  CB        13.5910  -12.1900    8.0450 C.3    10  ILE10       0.0266
      6  CG1       13.2300  -13.3260    9.0100 C.3    10  ILE10       0.0019
      7  CG2       12.6590  -10.9980    8.2680 C.3    10  ILE10       0.0020
      8  CD1       13.2980  -12.9330   10.5210 C.3    10  ILE10       0.0001
      9  N         14.9520  -11.0300    5.4220 N.am   11  GLY11      -0.1942
     10  CA        15.2550   -9.9200    4.5330 C.3    11  GLY11       0.2014
     11  C         16.5580   -9.2410    4.8890 C.2    11  GLY11       0.2639
     12  O         17.2400   -9.6380    5.8440 O.2    11  GLY11      -0.2714
     13  N         16.8970   -8.2040    4.1320 N.am   12  GLU12      -0.1963
     14  CA        18.0820   -7.3950    4.4140 C.3    12  GLU12       0.1733
     15  C         17.8530   -6.3850    5.5350 C.2    12  GLU12       0.2616
     16  O         16.9840   -5.5280    5.4380 O.2    12  GLU12      -0.2715
     17  CB        18.5700   -6.6790    3.1510 C.3    12  GLU12       0.0429
     18  CG        20.0740   -6.7850    2.9340 C.3    12  GLU12       0.1163
     19  CD        20.4870   -8.0580    2.2120 C.2    12  GLU12       0.3649
     20  OE1       19.6320   -8.9630    2.0330 O.co2  12  GLU12      -0.2457
     21  OE2       21.6720   -8.1530    1.8130 O.co2  12  GLU12      -0.2457
     22  N         18.6420   -6.5080    6.5990 N.am   13  GLY13      -0.1955
     23  CA        18.6320   -5.5530    7.6970 C.3    13  GLY13       0.1869
     24  C         19.5210   -4.3720    7.3470 C.2    13  GLY13       0.2309
     25  O         19.8600   -4.1830    6.1770 O.2    13  GLY13      -0.2863
     26  N         18.9350  -10.9160    7.7820 N.3    18  VAL18      -0.1245
     27  CA        18.2700  -11.4670    8.9580 C.3    18  VAL18       0.1561
     28  C         17.5320  -12.7420    8.5710 C.2    18  VAL18       0.2260
     29  O         16.8060  -12.7660    7.5830 O.2    18  VAL18      -0.2867
     30  CB        17.2800  -10.4540    9.5940 C.3    18  VAL18       0.0252
     31  CG1       16.7110  -11.0200   10.8900 C.3    18  VAL18       0.0019
     32  CG2       17.9600   -9.1070    9.8490 C.3    18  VAL18       0.0019
     33  N         15.5980  -14.7230   15.5430 N.3    31  ALA31      -0.1245
     34  CA        15.9620  -13.9940   14.3480 C.3    31  ALA31       0.1562
     35  C         17.4630  -13.7870   14.4180 C.2    31  ALA31       0.2260
     36  O         17.9710  -13.1460   15.3490 O.2    31  ALA31      -0.2867
     37  CB        15.2350  -12.6400   14.3000 C.3    31  ALA31       0.0290
     38  N         20.8370  -12.2520   12.8260 N.3    33  LYS33      -0.1245
     39  CA        21.4240  -11.2700   11.9210 C.3    33  LYS33       0.1561
     40  C         22.8970  -11.5880   11.6640 C.2    33  LYS33       0.2260
     41  O         23.7210  -11.5470   12.5760 O.2    33  LYS33      -0.2867
     42  CB        21.2950   -9.8450   12.4700 C.3    33  LYS33       0.0271
     43  CG        21.7530   -8.7610   11.4700 C.3    33  LYS33       0.0035
     44  CD        21.5780   -7.3640   12.0240 C.3    33  LYS33       0.0206
     45  CE        20.6420   -6.5400   11.1540 C.3    33  LYS33       0.1093
     46  NZ        21.2970   -5.3010   10.6240 N.3    33  LYS33      -0.1314
     47  N         13.0360   -5.0270   20.5260 N.3    55  VAL55      -0.1245
     48  CA        13.3180   -6.4270   20.2250 C.3    55  VAL55       0.1561
     49  C         14.5610   -6.8570   21.0250 C.2    55  VAL55       0.2260
     50  O         15.5880   -6.1750   21.0160 O.2    55  VAL55      -0.2867
     51  CB        13.5150   -6.6750   18.6920 C.3    55  VAL55       0.0252
     52  CG1       14.8380   -6.0770   18.1790 C.3    55  VAL55       0.0019
     53  CG2       13.4820   -8.1500   18.3710 C.3    55  VAL55       0.0019
     54  N         18.6120  -12.5030   17.9670 N.3    71  PHE71      -0.1227
     55  CA        17.5530  -11.6460   18.4830 C.3    71  PHE71       0.1736
     56  C         16.3160  -12.4820   18.7520 C.2    71  PHE71       0.2595
     57  O         16.1540  -13.5650   18.1940 O.2    71  PHE71      -0.2718
     58  CB        17.1520  -10.6110   17.4230 C.3    71  PHE71       0.0547
     59  CG        18.1030   -9.4650   17.2600 C.ar   71  PHE71      -0.0202
     60  CD1       18.0310   -8.3500   18.1010 C.ar   71  PHE71      -0.0042
     61  CD2       19.0250   -9.4640   16.2300 C.ar   71  PHE71      -0.0042
     62  CE1       18.8910   -7.2610   17.9330 C.ar   71  PHE71      -0.0003
     63  CE2       19.8970   -8.3690   16.0360 C.ar   71  PHE71      -0.0003
     64  CZ        19.8350   -7.2770   16.8870 C.ar   71  PHE71      -0.0000
     65  N         15.4190  -11.9340   19.5680 N.am   72  GLU72      -0.1965
     66  CA        14.0670  -12.4370   19.6770 C.3    72  GLU72       0.1733
     67  C         13.3790  -12.3490   18.2920 C.2    72  GLU72       0.2616
     68  O         13.6300  -11.4110   17.5330 O.2    72  GLU72      -0.2715
     69  CB        13.3390  -11.6110   20.7410 C.3    72  GLU72       0.0429
     70  CG        11.8290  -11.5100   20.6160 C.3    72  GLU72       0.1163
     71  CD        11.2400  -10.4570   21.5460 C.2    72  GLU72       0.3649
     72  OE1       11.8980   -9.4290   21.8090 O.co2  72  GLU72      -0.2457
     73  OE2       10.1060  -10.6610   22.0060 O.co2  72  GLU72      -0.2457
     74  N         12.5380  -13.3310   17.9730 N.am   73  PHE73      -0.1960
     75  CA        11.7630  -13.3540   16.7300 C.3    73  PHE73       0.1771
     76  C         10.3330  -12.8710   16.9730 C.2    73  PHE73       0.2619
     77  O          9.7090  -13.2700   17.9450 O.2    73  PHE73      -0.2715
     78  CB        11.7070  -14.7880   16.1670 C.3    73  PHE73       0.0574
     79  CG        10.8180  -14.9370   14.9570 C.ar   73  PHE73      -0.0200
     80  CD1        9.5670  -15.5500   15.0660 C.ar   73  PHE73      -0.0042
     81  CD2       11.2340  -14.4720   13.7090 C.ar   73  PHE73      -0.0042
     82  CE1        8.7460  -15.6870   13.9450 C.ar   73  PHE73      -0.0003
     83  CE2       10.4330  -14.6000   12.5920 C.ar   73  PHE73      -0.0003
     84  CZ         9.1760  -15.2050   12.7080 C.ar   73  PHE73      -0.0000
     85  N          9.8180  -12.0210   16.0840 N.am   74  LEU74      -0.1963
     86  CA         8.3930  -11.6960   16.0830 C.3    74  LEU74       0.1728
     87  C          7.7940  -12.0770   14.7270 C.2    74  LEU74       0.2616
     88  O          8.4860  -12.0680   13.7030 O.2    74  LEU74      -0.2715
     89  CB         8.1500  -10.2080   16.4310 C.3    74  LEU74       0.0311
     90  CG         8.2310   -9.8670   17.9320 C.3    74  LEU74       0.0022
     91  CD1        9.6890   -9.6270   18.3540 C.3    74  LEU74       0.0001
     92  CD2        7.3880   -8.6460   18.3250 C.3    74  LEU74       0.0001
     93  N          6.5130  -12.4230   14.7170 N.am   75  HIS75      -0.1959
     94  CA         5.9140  -13.0280   13.5340 C.3    75  HIS75       0.1787
     95  C          5.5530  -12.1130   12.3610 C.2    75  HIS75       0.2620
     96  O          5.3990  -12.6120   11.2390 O.2    75  HIS75      -0.2715
     97  CB         4.7040  -13.8990   13.9280 C.3    75  HIS75       0.0785
     98  CG         5.1020  -15.2140   14.5020 C.ar   75  HIS75       0.0821
     99  ND1        5.5590  -15.3460   15.7960 N.ar   75  HIS75      -0.2267
    100  CD2        5.1660  -16.4490   13.9470 C.ar   75  HIS75       0.1154
    101  CE1        5.8640  -16.6130   16.0240 C.ar   75  HIS75       0.1986
    102  NE2        5.6340  -17.3020   14.9190 N.ar   75  HIS75      -0.2212
    103  N          5.4420  -10.8020   12.6110 N.am   76  GLN76      -0.1963
    104  CA         5.0090   -9.8470   11.5730 C.3    76  GLN76       0.1733
    105  C          5.6080   -8.4480   11.7590 C.2    76  GLN76       0.2616
    106  O          5.8630   -8.0130   12.8780 O.2    76  GLN76      -0.2715
    107  CB         3.4760   -9.7360   11.5280 C.3    76  GLN76       0.0408
    108  CG         2.9230   -9.2480   10.1810 C.3    76  GLN76       0.0908
    109  CD         1.4930   -9.7130    9.9260 C.2    76  GLN76       0.2608
    110  OE1        1.2630  -10.8040    9.3690 O.2    76  GLN76      -0.2717
    111  NE2        0.5320   -8.8980   10.3340 N.am   76  GLN76      -0.0878
    112  N          5.8310   -7.7520   10.6520 N.am   77  ASP77      -0.1971
    113  CA         6.2040   -6.3390   10.7120 C.3    77  ASP77       0.1709
    114  C          4.9840   -5.4550   10.4530 C.2    77  ASP77       0.2293
    115  O          3.9760   -5.9130    9.9010 O.2    77  ASP77      -0.2864
    116  CB         7.3130   -6.0400    9.7170 C.3    77  ASP77       0.1436
    117  CG         6.8840   -6.2950    8.2800 C.2    77  ASP77       0.3671
    118  OD1        6.6840   -5.3290    7.5370 O.co2  77  ASP77      -0.2456
    119  OD2        6.7020   -7.4280    7.8130 O.co2  77  ASP77      -0.2456
    120  N         10.9640    2.8250   10.3530 N.3   120  LYS120     -0.1245
    121  CA        10.0420    2.6300    9.2440 C.3   120  LYS120      0.1561
    122  C          9.0950    1.4830    9.5870 C.2   120  LYS120      0.2260
    123  O          9.4120    0.6690   10.4510 O.2   120  LYS120     -0.2867
    124  CB        10.7730    2.3510    7.9170 C.3   120  LYS120      0.0271
    125  CG        11.8140    1.2600    7.9200 C.3   120  LYS120      0.0035
    126  CD        12.7690    1.5010    6.7320 C.3   120  LYS120      0.0206
    127  CE        13.9910    0.6210    6.7990 C.3   120  LYS120      0.1093
    128  NZ        14.7740    0.7190    5.5280 N.3   120  LYS120     -0.1314
    129  N          8.6410   -1.2180    8.1000 N.3   122  GLN122     -0.1231
    130  CA         9.2990   -2.5280    7.8910 C.3   122  GLN122      0.1698
    131  C         10.2220   -2.9900    9.0250 C.2   122  GLN122      0.2592
    132  O         10.5500   -4.1770    9.0940 O.2   122  GLN122     -0.2718
    133  CB        10.0610   -2.6010    6.5600 C.3   122  GLN122      0.0381
    134  CG         9.2490   -2.1580    5.3440 C.3   122  GLN122      0.0905
    135  CD         9.5350   -0.7090    5.0160 C.2   122  GLN122      0.2608
    136  OE1        9.0280    0.1970    5.6880 O.2   122  GLN122     -0.2717
    137  NE2       10.3970   -0.4840    4.0160 N.am  122  GLN122     -0.0878
    138  N         10.6210   -2.0840    9.9200 N.am  123  ASN123     -0.1974
    139  CA        11.4000   -2.5170   11.0900 C.3   123  ASN123      0.1688
    140  C         10.6650   -2.3930   12.4380 C.2   123  ASN123      0.2292
    141  O         11.2570   -2.4700   13.5090 O.2   123  ASN123     -0.2864
    142  CB        12.8330   -1.9360   11.1040 C.3   123  ASN123      0.1181
    143  CG        12.8730   -0.4310   11.0700 C.2   123  ASN123      0.2629
    144  OD1       12.0670    0.2460   11.7120 O.2   123  ASN123     -0.2716
    145  ND2       13.8460    0.1100   10.3500 N.am  123  ASN123     -0.0877
    146  N          8.0040   -4.3160   14.6760 N.3   125  LEU125     -0.1245
    147  CA         7.5400   -5.6970   14.7730 C.3   125  LEU125      0.1561
    148  C          6.3690   -5.8570   15.7310 C.2   125  LEU125      0.2260
    149  O          6.3630   -5.2770   16.8240 O.2   125  LEU125     -0.2867
    150  CB         8.6970   -6.6040   15.2000 C.3   125  LEU125      0.0270
    151  CG        10.0280   -6.4000   14.4710 C.3   125  LEU125      0.0019
    152  CD1       11.0180   -7.3840   15.0470 C.3   125  LEU125      0.0001
    153  CD2        9.8940   -6.5750   12.9330 C.3   125  LEU125      0.0001
    154  N         13.0360   -2.3290   16.2130 N.3   135  ALA135     -0.1231
    155  CA        14.0350   -3.2990   15.7590 C.3   135  ALA135      0.1694
    156  C         14.9590   -2.7270   14.6800 C.2   135  ALA135      0.2592
    157  O         14.6400   -1.7120   14.0400 O.2   135  ALA135     -0.2718
    158  CB        13.3540   -4.5490   15.2330 C.3   135  ALA135      0.0304
    159  N         16.0940   -3.3960   14.4830 N.am  136  ASP136     -0.1974
    160  CA        17.0120   -3.0800   13.3900 C.3   136  ASP136      0.1709
    161  C         17.6530   -1.7020   13.5750 C.2   136  ASP136      0.2293
    162  O         17.6570   -0.8840   12.6570 O.2   136  ASP136     -0.2864
    163  CB        16.2660   -3.1830   12.0460 C.3   136  ASP136      0.1436
    164  CG        17.1770   -3.5000   10.8860 C.2   136  ASP136      0.3671
    165  OD1       18.4150   -3.4900   11.0470 O.co2 136  ASP136     -0.2456
    166  OD2       16.7230   -3.7630    9.7620 O.co2 136  ASP136     -0.2456
@<TRIPOS>BOND
     1    21    19   ar
     2    20    19   ar
     3    19    18    1
     4    18    17    1
     5    17    14    1
     6   137   135   am
     7    13    14    1
     8    13    11   am
     9    14    15    1
    10    10    11    1
    11    10     9    1
    12    11    12    2
    13     4     3    2
    14   135   134    1
    15   135   136    2
    16   134   133    1
    17     9     3   am
    18    16    15    2
    19   128   127    1
    20    15    22   am
    21     3     2    1
    22    25    24    2
    23     1     2    1
    24     2     5    1
    25   133   130    1
    26    22    23    1
    27   126   127    1
    28   126   125    1
    29    24    23    1
    30   118   117   ar
    31    29    28    2
    32    26    27    1
    33   119   117   ar
    34   130   129    1
    35   130   131    1
    36   124   125    1
    37   124   121    1
    38     5     7    1
    39     5     6    1
    40   117   116    1
    41    28    27    1
    42    27    30    1
    43     6     8    1
    44   131   132    2
    45   131   138   am
    46   121   122    1
    47   121   120    1
    48   110   109    2
    49   122   123    2
    50    30    32    1
    51    30    31    1
    52   116   113    1
    53   166   164   ar
    54   115   114    2
    55   138   139    1
    56   109   108    1
    57   109   111   am
    58   108   107    1
    59   145   143   am
    60   114   113    1
    61    46    45    1
    62   112   113    1
    63   112   105   am
    64   164   165   ar
    65   164   163    1
    66   143   142    1
    67   143   144    2
    68   139   142    1
    69   139   140    1
    70    45    44    1
    71    96    95    2
    72    43    44    1
    73    43    42    1
    74   107   104    1
    75   104   105    1
    76   104   103    1
    77    40    39    1
    78    40    41    2
    79   105   106    2
    80    39    42    1
    81    39    38    1
    82   163   160    1
    83    95   103   am
    84    95    94    1
    85   140   141    2
    86    83    84   ar
    87    83    81   ar
    88   162   161    2
    89    84    82   ar
    90   153   151    1
    91   160   161    1
    92   160   159    1
    93    94    97    1
    94    94    93    1
    95    88    87    2
    96    81    79   ar
    97    97    98    1
    98    82    80   ar
    99   100    98   ar
   100   100   102   ar
   101   157   156    2
   102    37    34    1
   103    34    35    1
   104    34    33    1
   105    35    36    2
   106   151   152    1
   107   151   150    1
   108   159   156   am
   109    98    99   ar
   110   146   147    1
   111   156   155    1
   112    93    87   am
   113    87    86    1
   114   147   150    1
   115   147   148    1
   116   102   101   ar
   117    79    80   ar
   118    79    78    1
   119   158   155    1
   120   148   149    2
   121   155   154    1
   122    99   101   ar
   123    63    61   ar
   124    63    64   ar
   125    86    85    1
   126    86    89    1
   127    85    76   am
   128    78    75    1
   129    61    59   ar
   130    89    90    1
   131    75    76    1
   132    75    74    1
   133    64    62   ar
   134    76    77    2
   135    59    58    1
   136    59    60   ar
   137    58    55    1
   138    68    67    2
   139    90    92    1
   140    90    91    1
   141    62    60   ar
   142    54    55    1
   143    74    67   am
   144    52    51    1
   145    57    56    2
   146    67    66    1
   147    53    51    1
   148    55    56    1
   149    51    48    1
   150    56    65   am
   151    65    66    1
   152    66    69    1
   153    48    47    1
   154    48    49    1
   155    70    69    1
   156    70    71    1
   157    50    49    2
   158    71    72   ar
   159    71    73   ar
