@<TRIPOS>MOLECULE
tmp/1r7aB00.pdb
 108 102 0 0 0
SMALL
GASTEIGER

@<TRIPOS>ATOM
      1  N         27.2490   69.9080  -24.1860 N.3    50  ASP50      -0.1239
      2  CA        28.1880   70.3470  -25.2120 C.3    50  ASP50       0.1674
      3  C         27.5160   70.9070  -26.4640 C.2    50  ASP50       0.2266
      4  O         27.8240   70.5050  -27.5870 O.2    50  ASP50      -0.2867
      5  CB        29.1280   69.1910  -25.5740 C.3    50  ASP50       0.1410
      6  CG        30.3080   69.6350  -26.4250 C.2    50  ASP50       0.3668
      7  OD1       30.6480   70.8380  -26.4060 O.co2  50  ASP50      -0.2456
      8  OD2       30.9070   68.7720  -27.1040 O.co2  50  ASP50      -0.2456
      9  N         26.2640   68.4680  -29.1420 N.3    53  PHE53      -0.1241
     10  CA        27.0900   67.2860  -29.3540 C.3    53  PHE53       0.1605
     11  C         26.9670   66.1780  -28.3030 C.2    53  PHE53       0.2264
     12  O         27.7690   65.2400  -28.2750 O.2    53  PHE53      -0.2867
     13  CB        28.5450   67.7170  -29.5560 C.3    53  PHE53       0.0534
     14  CG        28.7970   68.3390  -30.9080 C.ar   53  PHE53      -0.0203
     15  CD1       28.9960   67.5380  -32.0310 C.ar   53  PHE53      -0.0042
     16  CD2       28.7890   69.7220  -31.0680 C.ar   53  PHE53      -0.0042
     17  CE1       29.1800   68.1020  -33.2920 C.ar   53  PHE53      -0.0003
     18  CE2       28.9720   70.2970  -32.3250 C.ar   53  PHE53      -0.0003
     19  CZ        29.1690   69.4840  -33.4400 C.ar   53  PHE53      -0.0000
     20  N         30.1370   59.2570  -29.3830 N.3    88  HIS88      -0.1241
     21  CA        29.5170   59.2680  -28.0670 C.3    88  HIS88       0.1621
     22  C         28.0840   59.7570  -28.1330 C.2    88  HIS88       0.2264
     23  O         27.6100   60.1850  -29.1790 O.2    88  HIS88      -0.2867
     24  CB        30.2950   60.2320  -27.1850 C.3    88  HIS88       0.0745
     25  CG        30.5470   61.5500  -27.8510 C.ar   88  HIS88       0.0817
     26  ND1       31.7110   61.8280  -28.5350 N.ar   88  HIS88      -0.2268
     27  CD2       29.7500   62.6340  -28.0120 C.ar   88  HIS88       0.1154
     28  CE1       31.6210   63.0230  -29.0900 C.ar   88  HIS88       0.1986
     29  NE2       30.4400   63.5340  -28.7890 N.ar   88  HIS88      -0.2212
     30  N         35.3190   63.4310  -24.1520 N.3   156  PHE156     -0.1241
     31  CA        35.0650   64.8580  -23.9670 C.3   156  PHE156      0.1605
     32  C         34.4710   65.1780  -22.5960 C.2   156  PHE156      0.2264
     33  O         35.1470   64.9770  -21.5920 O.2   156  PHE156     -0.2867
     34  CB        34.1830   65.3280  -25.1190 C.3   156  PHE156      0.0534
     35  CG        34.8070   65.0740  -26.4630 C.ar  156  PHE156     -0.0203
     36  CD1       35.8920   65.8360  -26.8910 C.ar  156  PHE156     -0.0042
     37  CD2       34.3840   64.0120  -27.2560 C.ar  156  PHE156     -0.0042
     38  CE1       36.5500   65.5400  -28.0850 C.ar  156  PHE156     -0.0003
     39  CE2       35.0350   63.7070  -28.4530 C.ar  156  PHE156     -0.0003
     40  CZ        36.1210   64.4740  -28.8660 C.ar  156  PHE156     -0.0000
     41  N         29.2380   62.9630  -21.9490 N.3   160  GLN160     -0.1245
     42  CA        29.2640   62.3570  -23.2760 C.3   160  GLN160      0.1566
     43  C         29.9520   61.0000  -23.1700 C.2   160  GLN160      0.2260
     44  O         31.1810   60.9090  -23.1950 O.2   160  GLN160     -0.2867
     45  CB        30.0140   63.2620  -24.2570 C.3   160  GLN160      0.0367
     46  CG        29.2370   64.5170  -24.6420 C.3   160  GLN160      0.0905
     47  CD        30.1350   65.6330  -25.1410 C.2   160  GLN160      0.2608
     48  OE1       30.9810   66.1340  -24.4010 O.2   160  GLN160     -0.2717
     49  NE2       29.9540   66.0300  -26.3960 N.am  160  GLN160     -0.0878
     50  N         31.6820   63.6090  -36.8370 N.3   192  ASP192     -0.1225
     51  CA        32.2250   64.2820  -35.6620 C.3   192  ASP192      0.1805
     52  C         33.1780   63.4170  -34.8350 C.2   192  ASP192      0.2597
     53  O         32.8770   62.2610  -34.5420 O.2   192  ASP192     -0.2718
     54  CB        31.0610   64.7480  -34.7840 C.3   192  ASP192      0.1424
     55  CG        31.5190   65.4310  -33.5150 C.2   192  ASP192      0.3668
     56  OD1       32.0200   66.5740  -33.5980 O.co2 192  ASP192     -0.2456
     57  OD2       31.3770   64.8150  -32.4340 O.co2 192  ASP192     -0.2456
     58  N         34.3230   63.9930  -34.4660 N.am  193  ALA193     -0.1979
     59  CA        35.3320   63.3150  -33.6450 C.3   193  ALA193      0.1597
     60  C         35.5780   61.8590  -34.0290 C.2   193  ALA193      0.2287
     61  O         35.8740   61.0250  -33.1720 O.2   193  ALA193     -0.2864
     62  CB        34.9290   63.3970  -32.1730 C.3   193  ALA193      0.0319
     63  N         35.9780   65.1150  -39.4120 N.3   232  GLU232     -0.1245
     64  CA        36.5990   66.1410  -38.5910 C.3   232  GLU232      0.1567
     65  C         37.7850   65.5120  -37.8890 C.2   232  GLU232      0.2260
     66  O         37.6180   64.5760  -37.1040 O.2   232  GLU232     -0.2867
     67  CB        35.6430   66.6740  -37.5190 C.3   232  GLU232      0.0388
     68  CG        36.3680   67.5850  -36.5230 C.3   232  GLU232      0.1160
     69  CD        35.7140   67.6430  -35.1570 C.2   232  GLU232      0.3649
     70  OE1       35.2360   66.5940  -34.6730 O.co2 232  GLU232     -0.2457
     71  OE2       35.7000   68.7400  -34.5540 O.co2 232  GLU232     -0.2457
     72  N         33.0160   76.4140  -35.2990 N.3   289  HIS289     -0.1226
     73  CA        32.2560   76.6310  -34.0760 C.3   289  HIS289      0.1752
     74  C         33.1300   76.3620  -32.8500 C.2   289  HIS289      0.2596
     75  O         32.7100   76.5790  -31.7130 O.2   289  HIS289     -0.2718
     76  CB        31.0260   75.7240  -34.0560 C.3   289  HIS289      0.0759
     77  CG        31.3570   74.2680  -34.1050 C.ar  289  HIS289      0.0818
     78  ND1       31.9320   73.6710  -35.2070 N.ar  289  HIS289     -0.2268
     79  CD2       31.2100   73.2900  -33.1810 C.ar  289  HIS289      0.1154
     80  CE1       32.1280   72.3890  -34.9570 C.ar  289  HIS289      0.1986
     81  NE2       31.6980   72.1320  -33.7340 N.ar  289  HIS289     -0.2212
     82  N         34.3460   75.8810  -33.0880 N.am  290  ASP290     -0.1974
     83  CA        35.2830   75.6170  -32.0040 C.3   290  ASP290      0.1709
     84  C         36.3820   76.6700  -32.0260 C.2   290  ASP290      0.2293
     85  O         36.2780   77.6680  -32.7420 O.2   290  ASP290     -0.2864
     86  CB        35.9080   74.2260  -32.1420 C.3   290  ASP290      0.1436
     87  CG        34.8920   73.1130  -31.9770 C.2   290  ASP290      0.3671
     88  OD1       34.0210   73.2330  -31.0910 O.co2 290  ASP290     -0.2456
     89  OD2       34.9710   72.1140  -32.7240 O.co2 290  ASP290     -0.2456
     90  N         37.3760   71.6380  -23.7610 N.3   341  LEU341     -0.1245
     91  CA        37.6030   70.2180  -24.0020 C.3   341  LEU341      0.1561
     92  C         38.9540   70.0330  -24.6820 C.2   341  LEU341      0.2260
     93  O         39.4620   68.9180  -24.7920 O.2   341  LEU341     -0.2867
     94  CB        36.4980   69.6490  -24.8920 C.3   341  LEU341      0.0270
     95  CG        35.0810   69.7260  -24.3230 C.3   341  LEU341      0.0019
     96  CD1       34.0890   69.1910  -25.3470 C.3   341  LEU341      0.0001
     97  CD2       35.0060   68.9220  -23.0330 C.3   341  LEU341      0.0001
     98  N         34.5840   78.3940  -25.6010 N.3   398  ARG398     -0.1245
     99  CA        34.1860   78.5180  -26.9960 C.3   398  ARG398      0.1563
    100  C         33.0230   79.4720  -27.2490 C.2   398  ARG398      0.2260
    101  O         32.8040   79.8950  -28.3840 O.2   398  ARG398     -0.2867
    102  CB        33.8890   77.1330  -27.5620 C.3   398  ARG398      0.0307
    103  CG        35.1490   76.2910  -27.6970 C.3   398  ARG398      0.0489
    104  CD        34.8320   74.8700  -28.1040 C.3   398  ARG398      0.2205
    105  NE        34.1970   74.1280  -27.0210 N.pl3 398  ARG398     -0.0865
    106  CZ        33.7080   72.8990  -27.1550 C.cat 398  ARG398      0.5346
    107  NH1       33.7840   72.2840  -28.3280 N.pl3 398  ARG398      0.1354
    108  NH2       33.1500   72.2870  -26.1180 N.pl3 398  ARG398      0.1354
@<TRIPOS>BOND
     1    63    64    1
     2    64    65    1
     3    64    67    1
     4    65    66    2
     5    67    68    1
     6    50    51    1
     7    68    69    1
     8    51    52    1
     9    51    54    1
    10    72    73    1
    11    78    80   ar
    12    78    77   ar
    13    69    70   ar
    14    69    71   ar
    15    80    81   ar
    16    52    53    2
    17    52    58   am
    18    54    55    1
    19    58    59    1
    20    77    76    1
    21    77    79   ar
    22    73    76    1
    23    73    74    1
    24    60    59    1
    25    60    61    2
    26    81    79   ar
    27    59    62    1
    28    56    55   ar
    29    55    57   ar
    30    19    17   ar
    31    19    18   ar
    32    17    15   ar
    33    82    74   am
    34    82    83    1
    35    74    75    2
    36    85    84    2
    37    89    87   ar
    38    18    16   ar
    39    86    83    1
    40    86    87    1
    41    15    14   ar
    42    84    83    1
    43    87    88   ar
    44    16    14   ar
    45    14    13    1
    46    13    10    1
    47    20    21    1
    48    10     9    1
    49    10    11    1
    50    23    22    2
    51    28    29   ar
    52    28    26   ar
    53    40    39   ar
    54    40    38   ar
    55    29    27   ar
    56    26    25   ar
    57    39    37   ar
    58   101   100    2
    59   107   106    1
    60    11    12    2
    61    22    21    1
    62   104   103    1
    63   104   105    1
    64    38    36   ar
    65    21    24    1
    66    27    25   ar
    67    25    24    1
    68   103   102    1
    69     4     3    2
    70   102    99    1
    71    37    35   ar
    72   100    99    1
    73   106   105    2
    74   106   108    1
    75     8     6   ar
    76    99    98    1
    77    36    35   ar
    78     3     2    1
    79    35    34    1
    80     6     7   ar
    81     6     5    1
    82    49    47   am
    83     5     2    1
    84    96    95    1
    85     2     1    1
    86    47    46    1
    87    47    48    2
    88    34    31    1
    89    94    95    1
    90    94    91    1
    91    93    92    2
    92    92    91    1
    93    46    45    1
    94    95    97    1
    95    45    42    1
    96    30    31    1
    97    91    90    1
    98    31    32    1
    99    42    43    1
   100    42    41    1
   101    44    43    2
   102    32    33    2
