@<TRIPOS>MOLECULE
tmp/1r7oA00.pdb
 97 92 0 0 0
SMALL
GASTEIGER

@<TRIPOS>ATOM
      1  N         22.4860    5.5440   24.5050 N.3    16  GLU16      -0.1245
      2  CA        23.1560    6.7650   24.0580 C.3    16  GLU16       0.1567
      3  C         23.0430    6.9520   22.5380 C.2    16  GLU16       0.2260
      4  O         22.9770    8.0740   22.0510 O.2    16  GLU16      -0.2867
      5  CB        24.6280    6.7470   24.4550 C.3    16  GLU16       0.0388
      6  CG        24.8910    6.9370   25.9410 C.3    16  GLU16       0.1160
      7  CD        24.6720    5.6930   26.7750 C.2    16  GLU16       0.3649
      8  OE1       24.5290    4.5800   26.2250 O.co2  16  GLU16      -0.2457
      9  OE2       24.6340    5.8380   28.0150 O.co2  16  GLU16      -0.2457
     10  N         37.2670   10.1020   22.0210 N.3    88  LYS88      -0.1245
     11  CA        36.8960   10.1790   23.4310 C.3    88  LYS88       0.1561
     12  C         36.9250   11.6230   23.9660 C.2    88  LYS88       0.2260
     13  O         36.0320   12.0120   24.7320 O.2    88  LYS88      -0.2867
     14  CB        37.7940    9.2670   24.2770 C.3    88  LYS88       0.0271
     15  CG        37.5020    7.7810   24.1110 C.3    88  LYS88       0.0035
     16  CD        38.6340    6.9100   24.6680 C.3    88  LYS88       0.0206
     17  CE        38.7530    7.0070   26.1870 C.3    88  LYS88       0.1093
     18  NZ        39.7930    6.0580   26.7370 N.3    88  LYS88      -0.1314
     19  N         33.8200   13.3460   22.5370 N.3    91  TYR91      -0.1227
     20  CA        32.6290   12.8550   23.2190 C.3    91  TYR91       0.1736
     21  C         32.5160   13.4530   24.6220 C.2    91  TYR91       0.2595
     22  O         31.4140   13.7660   25.0730 O.2    91  TYR91      -0.2718
     23  CB        32.6730   11.3330   23.3100 C.3    91  TYR91       0.0548
     24  CG        31.4060   10.6740   23.7890 C.ar   91  TYR91      -0.0200
     25  CD1       30.2070   10.8500   23.1090 C.ar   91  TYR91      -0.0009
     26  CD2       31.4050    9.8660   24.9270 C.ar   91  TYR91      -0.0009
     27  CE1       29.0510   10.2410   23.5370 C.ar   91  TYR91       0.0417
     28  CE2       30.2510    9.2400   25.3600 C.ar   91  TYR91       0.0417
     29  CZ        29.0710    9.4370   24.6640 C.ar   91  TYR91       0.1957
     30  OH        27.9120    8.8200   25.0850 O.3    91  TYR91      -0.2866
     31  N         33.6550   13.6100   25.2950 N.am   92  ALA92      -0.1980
     32  CA        33.6890   14.1800   26.6450 C.3    92  ALA92       0.1597
     33  C         33.2210   15.6300   26.6450 C.2    92  ALA92       0.2287
     34  O         32.6710   16.1100   27.6370 O.2    92  ALA92      -0.2864
     35  CB        35.0890   14.0680   27.2380 C.3    92  ALA92       0.0319
     36  N         30.8180   16.5750   24.7220 N.3    94  GLY94      -0.1225
     37  CA        29.4480   16.5060   24.2590 C.3    94  GLY94       0.1811
     38  C         29.3260   16.5920   22.7420 C.2    94  GLY94       0.2280
     39  O         28.2440   16.8570   22.2360 O.2    94  GLY94      -0.2866
     40  N         33.6820    5.2000   26.6920 N.3   156  ASP156     -0.1225
     41  CA        33.9370    6.4090   27.4570 C.3   156  ASP156      0.1805
     42  C         34.5050    6.0210   28.8230 C.2   156  ASP156      0.2598
     43  O         34.8170    4.8590   29.0540 O.2   156  ASP156     -0.2718
     44  CB        32.6690    7.2610   27.5760 C.3   156  ASP156      0.1424
     45  CG        31.5750    6.6050   28.4000 C.2   156  ASP156      0.3668
     46  OD1       30.4090    7.0510   28.2660 O.co2 156  ASP156     -0.2456
     47  OD2       31.7660    5.6560   29.1990 O.co2 156  ASP156     -0.2456
     48  N         34.6360    7.0000   29.7120 N.am  157  GLU157     -0.1965
     49  CA        35.2480    6.7840   31.0270 C.3   157  GLU157      0.1733
     50  C         34.4630    5.8450   31.9350 C.2   157  GLU157      0.2616
     51  O         35.0310    5.2670   32.8610 O.2   157  GLU157     -0.2715
     52  CB        35.4530    8.1280   31.7340 C.3   157  GLU157      0.0429
     53  CG        36.4210    9.0540   31.0200 C.3   157  GLU157      0.1163
     54  CD        37.7870    8.4330   30.8240 C.2   157  GLU157      0.3649
     55  OE1       38.3720    7.9700   31.8230 O.co2 157  GLU157     -0.2457
     56  OE2       38.2710    8.4020   29.6730 O.co2 157  GLU157     -0.2457
     57  N         33.1640    5.6980   31.6820 N.am  158  GLN158     -0.1977
     58  CA        32.3200    4.7960   32.4550 C.3   158  GLN158      0.1601
     59  C         32.2090    3.4000   31.8400 C.2   158  GLN158      0.2287
     60  O         31.4770    2.5500   32.3530 O.2   158  GLN158     -0.2864
     61  CB        30.9230    5.4100   32.6250 C.3   158  GLN158      0.0394
     62  CG        30.8750    6.5980   33.5930 C.3   158  GLN158      0.0908
     63  CD        31.3900    7.8840   32.9800 C.2   158  GLN158      0.2608
     64  OE1       30.9260    8.3030   31.9120 O.2   158  GLN158     -0.2717
     65  NE2       32.3490    8.5210   33.6510 N.am  158  GLN158     -0.0878
     66  N         30.9780    2.8520   28.8220 N.3   160  ARG160     -0.1245
     67  CA        29.8250    2.8160   27.9120 C.3   160  ARG160      0.1563
     68  C         30.2440    3.1640   26.4790 C.2   160  ARG160      0.2260
     69  O         31.1220    3.9880   26.2700 O.2   160  ARG160     -0.2867
     70  CB        28.7500    3.7810   28.3900 C.3   160  ARG160      0.0307
     71  CG        28.1790    3.3930   29.7550 C.3   160  ARG160      0.0489
     72  CD        26.8050    3.9520   30.0410 C.3   160  ARG160      0.2205
     73  NE        25.8490    3.5430   29.0120 N.pl3 160  ARG160     -0.0865
     74  CZ        25.1600    2.4080   29.0070 C.cat 160  ARG160      0.5346
     75  NH1       25.2930    1.5110   29.9890 N.pl3 160  ARG160      0.1354
     76  NH2       24.3340    2.1530   27.9950 N.pl3 160  ARG160      0.1354
     77  N         23.0110   12.8750   24.7040 N.3   348  TYR348     -0.1227
     78  CA        23.1650   11.4340   24.8690 C.3   348  TYR348      0.1736
     79  C         22.3680   10.7750   26.0070 C.2   348  TYR348      0.2595
     80  O         22.3860    9.5580   26.1290 O.2   348  TYR348     -0.2718
     81  CB        24.6420   11.1220   25.0540 C.3   348  TYR348      0.0548
     82  CG        25.4580   11.4600   23.8350 C.ar  348  TYR348     -0.0200
     83  CD1       26.3070   12.5550   23.8250 C.ar  348  TYR348     -0.0009
     84  CD2       25.3640   10.6900   22.6810 C.ar  348  TYR348     -0.0009
     85  CE1       27.0520   12.8750   22.7070 C.ar  348  TYR348      0.0417
     86  CE2       26.0970   10.9980   21.5630 C.ar  348  TYR348      0.0417
     87  CZ        26.9390   12.0900   21.5740 C.ar  348  TYR348      0.1957
     88  OH        27.7020   12.3750   20.4690 O.3   348  TYR348     -0.2866
     89  N         21.6700   11.5570   26.8180 N.am  349  GLN349     -0.1979
     90  CA        20.9130   10.9860   27.9460 C.3   349  GLN349      0.1601
     91  C         19.4120   11.2760   27.8720 C.2   349  GLN349      0.2287
     92  O         18.7070   11.2800   28.8900 O.2   349  GLN349     -0.2864
     93  CB        21.5070   11.4620   29.2740 C.3   349  GLN349      0.0394
     94  CG        22.8770   10.8720   29.5590 C.3   349  GLN349      0.0908
     95  CD        23.5040   11.4000   30.8390 C.2   349  GLN349      0.2608
     96  OE1       23.4470   12.5980   31.1190 O.2   349  GLN349     -0.2717
     97  NE2       24.1280   10.5110   31.6040 N.am  349  GLN349     -0.0878
@<TRIPOS>BOND
     1    88    87    1
     2    86    87   ar
     3    86    84   ar
     4    87    85   ar
     5    10    11    1
     6     4     3    2
     7    39    38    2
     8    19    20    1
     9     3     2    1
    10    84    82   ar
    11    85    83   ar
    12    38    37    1
    13    25    27   ar
    14    25    24   ar
    15    20    23    1
    16    20    21    1
    17    23    24    1
    18    11    12    1
    19    11    14    1
    20    27    29   ar
    21    24    26   ar
    22    83    82   ar
    23    82    81    1
    24    12    13    2
    25     2     5    1
    26     2     1    1
    27    15    14    1
    28    15    16    1
    29    37    36    1
    30     5     6    1
    31    21    22    2
    32    21    31   am
    33    29    30    1
    34    29    28   ar
    35    16    17    1
    36    77    78    1
    37    78    81    1
    38    78    79    1
    39    26    28   ar
    40    31    32    1
    41     6     7    1
    42    79    80    2
    43    79    89   am
    44    17    18    1
    45     8     7   ar
    46    69    68    2
    47    68    67    1
    48    33    32    1
    49    33    34    2
    50    32    35    1
    51    40    41    1
    52     7     9   ar
    53    89    90    1
    54    41    44    1
    55    41    42    1
    56    44    45    1
    57    91    90    1
    58    91    92    2
    59    67    70    1
    60    67    66    1
    61    90    93    1
    62    76    74    1
    63    46    45   ar
    64    70    71    1
    65    45    47   ar
    66    42    43    2
    67    42    48   am
    68    74    73    2
    69    74    75    1
    70    73    72    1
    71    93    94    1
    72    94    95    1
    73    56    54   ar
    74    48    49    1
    75    71    72    1
    76    54    53    1
    77    54    55   ar
    78    95    96    2
    79    95    97   am
    80    53    52    1
    81    49    52    1
    82    49    50    1
    83    57    50   am
    84    57    58    1
    85    59    60    2
    86    59    58    1
    87    64    63    2
    88    50    51    2
    89    58    61    1
    90    61    62    1
    91    63    62    1
    92    63    65   am
