@<TRIPOS>MOLECULE
tmp/1r80A00.pdb
 151 149 0 0 0
SMALL
GASTEIGER

@<TRIPOS>ATOM
      1  N          6.8060   56.1170   42.2050 N.3   134  ASP134     -0.1225
      2  CA         6.1550   57.3660   42.6000 C.3   134  ASP134      0.1805
      3  C          6.4580   58.4370   41.5600 C.2   134  ASP134      0.2597
      4  O          7.0170   59.4960   41.8630 O.2   134  ASP134     -0.2718
      5  CB         6.6190   57.8130   43.9970 C.3   134  ASP134      0.1424
      6  CG         8.1330   57.8690   44.1380 C.2   134  ASP134      0.3668
      7  OD1        8.6020   58.4760   45.1250 O.co2 134  ASP134     -0.2456
      8  OD2        8.8580   57.3120   43.2900 O.co2 134  ASP134     -0.2456
      9  N          6.0550   58.1420   40.3290 N.am  135  MET135     -0.1979
     10  CA         6.2880   59.0090   39.1810 C.3   135  MET135      0.1605
     11  C          5.1090   58.9390   38.2260 C.2   135  MET135      0.2287
     12  O          4.2130   58.1140   38.3790 O.2   135  MET135     -0.2864
     13  CB         7.5160   58.5210   38.4080 C.3   135  MET135      0.0413
     14  CG         8.7810   58.3440   39.2170 C.3   135  MET135      0.0598
     15  SD         9.5540   59.9220   39.5610 S.3   135  MET135     -0.1393
     16  CE        10.0960   60.3810   37.9190 C.3   135  MET135      0.0692
     17  N         20.8200   63.3050   37.0860 N.3   154  HIS154     -0.1227
     18  CA        20.0440   63.7230   38.2460 C.3   154  HIS154      0.1737
     19  C         19.7050   65.2050   38.0510 C.2   154  HIS154      0.2438
     20  O         20.5830   66.0200   37.7750 O.2   154  HIS154     -0.2733
     21  CB        20.8750   63.5200   39.5140 C.3   154  HIS154      0.0758
     22  CG        20.1090   63.7420   40.7790 C.ar  154  HIS154      0.0818
     23  ND1       19.9720   62.7700   41.7470 N.ar  154  HIS154     -0.2268
     24  CD2       19.4460   64.8290   41.2390 C.ar  154  HIS154      0.1154
     25  CE1       19.2580   63.2500   42.7490 C.ar  154  HIS154      0.1986
     26  NE2       18.9260   64.4970   42.4660 N.ar  154  HIS154     -0.2212
     27  N         18.4230   65.5730   38.1990 N.am  155  PRO155     -0.2718
     28  CA        17.9970   66.9650   38.0210 C.3   155  PRO155      0.1535
     29  C         18.6250   68.0110   38.9320 C.2   155  PRO155      0.2599
     30  O         18.6190   69.1960   38.6020 O.2   155  PRO155     -0.2715
     31  CB        16.4780   66.8830   38.1800 C.3   155  PRO155      0.0310
     32  CG        16.2930   65.7320   39.0980 C.3   155  PRO155      0.0237
     33  CD        17.2800   64.7210   38.5660 C.3   155  PRO155      0.0939
     34  N         19.1700   67.5870   40.0660 N.am  156  SER156     -0.1936
     35  CA        19.7800   68.5280   40.9990 C.3   156  SER156      0.2055
     36  C         21.2540   68.8110   40.7220 C.2   156  SER156      0.2643
     37  O         21.7960   69.7990   41.2200 O.2   156  SER156     -0.2714
     38  CB        19.6370   68.0150   42.4370 C.3   156  SER156      0.2130
     39  OG        18.2740   67.8780   42.7990 O.3   156  SER156     -0.2179
     40  N         21.9020   67.9690   39.9210 N.am  157  PHE157     -0.1973
     41  CA        23.3290   68.1560   39.6630 C.3   157  PHE157      0.1639
     42  C         23.7950   68.2660   38.2160 C.2   157  PHE157      0.2290
     43  O         25.0010   68.2770   37.9680 O.2   157  PHE157     -0.2864
     44  CB        24.1280   67.0190   40.3100 C.3   157  PHE157      0.0560
     45  CG        23.8060   66.7860   41.7550 C.ar  157  PHE157     -0.0200
     46  CD1       22.8470   65.8460   42.1260 C.ar  157  PHE157     -0.0042
     47  CD2       24.4630   67.5020   42.7480 C.ar  157  PHE157     -0.0042
     48  CE1       22.5500   65.6220   43.4660 C.ar  157  PHE157     -0.0003
     49  CE2       24.1720   67.2860   44.0950 C.ar  157  PHE157     -0.0003
     50  CZ        23.2150   66.3450   44.4540 C.ar  157  PHE157     -0.0000
     51  N         27.0820   64.3050   45.0430 N.3   166  THR166     -0.1218
     52  CA        26.9720   63.5850   46.3060 C.3   166  THR166      0.1862
     53  C         27.3710   62.1110   46.2130 C.2   166  THR166      0.2287
     54  O         26.6450   61.2280   46.6670 O.2   166  THR166     -0.2866
     55  CB        25.5460   63.6910   46.8940 C.3   166  THR166      0.1770
     56  OG1       24.5860   63.2350   45.9330 O.3   166  THR166     -0.2211
     57  CG2       25.2410   65.1310   47.2710 C.3   166  THR166      0.0375
     58  N         26.4120   62.9300   37.7100 N.3   185  TYR185     -0.1241
     59  CA        25.7750   62.2900   38.8420 C.3   185  TYR185      0.1605
     60  C         24.4740   61.7340   38.2730 C.2   185  TYR185      0.2264
     61  O         23.5820   62.4880   37.8680 O.2   185  TYR185     -0.2867
     62  CB        25.4670   63.2690   39.9700 C.3   185  TYR185      0.0534
     63  CG        25.0350   62.5310   41.2140 C.ar  185  TYR185     -0.0201
     64  CD1       25.9770   61.9070   42.0320 C.ar  185  TYR185     -0.0009
     65  CD2       23.6850   62.3740   41.5240 C.ar  185  TYR185     -0.0009
     66  CE1       25.5910   61.1400   43.1230 C.ar  185  TYR185      0.0417
     67  CE2       23.2820   61.6060   42.6170 C.ar  185  TYR185      0.0417
     68  CZ        24.2420   60.9900   43.4100 C.ar  185  TYR185      0.1957
     69  OH        23.8570   60.2210   44.4800 O.3   185  TYR185     -0.2866
     70  N         20.9090   59.6000   38.4740 N.3   187  MET187     -0.1245
     71  CA        19.8850   59.3290   39.4770 C.3   187  MET187      0.1570
     72  C         19.4470   57.8780   39.3560 C.2   187  MET187      0.2261
     73  O         19.2110   57.3850   38.2570 O.2   187  MET187     -0.2867
     74  CB        18.6890   60.2630   39.3030 C.3   187  MET187      0.0387
     75  CG        17.6440   60.1210   40.4080 C.3   187  MET187      0.0595
     76  SD        16.5660   61.5540   40.5270 S.3   187  MET187     -0.1393
     77  CE        16.1450   61.4890   42.2550 C.3   187  MET187      0.0692
     78  N         24.1340   57.3140   49.5860 N.3   221  TRP221     -0.1241
     79  CA        22.8530   57.2580   48.8930 C.3   221  TRP221      0.1605
     80  C         22.5170   55.8510   48.4120 C.2   221  TRP221      0.2264
     81  O         21.8770   55.6540   47.3770 O.2   221  TRP221     -0.2867
     82  CB        22.8110   58.2770   47.7480 C.3   221  TRP221      0.0550
     83  CG        22.6660   59.6890   48.2630 C.ar  221  TRP221      0.0003
     84  CD1       23.6100   60.6760   48.2350 C.ar  221  TRP221      0.0946
     85  CD2       21.5300   60.2410   48.9460 C.ar  221  TRP221      0.0152
     86  NE1       23.1340   61.8070   48.8610 N.ar  221  TRP221     -0.2442
     87  CE2       21.8600   61.5660   49.3050 C.ar  221  TRP221      0.0810
     88  CE3       20.2650   59.7420   49.2900 C.ar  221  TRP221      0.0012
     89  CZ2       20.9700   62.4030   49.9940 C.ar  221  TRP221      0.0191
     90  CZ3       19.3790   60.5750   49.9750 C.ar  221  TRP221      0.0001
     91  CH2       19.7400   61.8910   50.3180 C.ar  221  TRP221      0.0015
     92  N         21.9940   54.0430   44.6760 N.3   224  GLU224     -0.1245
     93  CA        22.3720   55.1040   43.7530 C.3   224  GLU224      0.1567
     94  C         23.8650   55.4070   43.7930 C.2   224  GLU224      0.2260
     95  O         24.4620   55.7580   42.7710 O.2   224  GLU224     -0.2867
     96  CB        21.5680   56.3660   44.0650 C.3   224  GLU224      0.0388
     97  CG        21.9280   57.5670   43.2170 C.3   224  GLU224      0.1160
     98  CD        20.9730   58.7170   43.4400 C.2   224  GLU224      0.3649
     99  OE1       19.8960   58.7290   42.8080 O.co2 224  GLU224     -0.2457
    100  OE2       21.2890   59.6000   44.2650 O.co2 224  GLU224     -0.2457
    101  N         13.7980   62.8850   34.0170 N.3   245  LEU245     -0.1231
    102  CA        13.6780   62.7180   35.4640 C.3   245  LEU245      0.1693
    103  C         13.6280   64.1210   36.0540 C.2   245  LEU245      0.2592
    104  O         14.6640   64.7360   36.3150 O.2   245  LEU245     -0.2718
    105  CB        14.8880   61.9450   35.9950 C.3   245  LEU245      0.0284
    106  CG        14.6980   60.9370   37.1310 C.3   245  LEU245      0.0019
    107  CD1       13.4540   60.0770   36.9100 C.3   245  LEU245      0.0001
    108  CD2       15.9450   60.0710   37.2060 C.3   245  LEU245      0.0001
    109  N         12.4150   64.6250   36.2640 N.am  246  TRP246     -0.1962
    110  CA        12.2430   65.9800   36.7760 C.3   246  TRP246      0.1771
    111  C         11.1880   66.0980   37.8750 C.2   246  TRP246      0.2619
    112  O         10.4090   65.1780   38.1120 O.2   246  TRP246     -0.2715
    113  CB        11.8750   66.8960   35.6040 C.3   246  TRP246      0.0590
    114  CG        12.1310   68.3410   35.8520 C.ar  246  TRP246      0.0006
    115  CD1       11.2030   69.3120   36.1010 C.ar  246  TRP246      0.0946
    116  CD2       13.4080   68.9850   35.8860 C.ar  246  TRP246      0.0152
    117  NE1       11.8260   70.5230   36.2870 N.ar  246  TRP246     -0.2442
    118  CE2       13.1800   70.3510   36.1610 C.ar  246  TRP246      0.0810
    119  CE3       14.7250   68.5390   35.7100 C.ar  246  TRP246      0.0012
    120  CZ2       14.2210   71.2760   36.2660 C.ar  246  TRP246      0.0191
    121  CZ3       15.7610   69.4580   35.8120 C.ar  246  TRP246      0.0001
    122  CH2       15.5010   70.8150   36.0890 C.ar  246  TRP246      0.0015
    123  N         11.1870   67.2440   38.5490 N.am  247  ASP247     -0.1971
    124  CA        10.2290   67.5460   39.6080 C.3   247  ASP247      0.1709
    125  C          9.9340   69.0240   39.4120 C.2   247  ASP247      0.2293
    126  O         10.7150   69.8800   39.8340 O.2   247  ASP247     -0.2864
    127  CB        10.8480   67.3240   40.9890 C.3   247  ASP247      0.1436
    128  CG         9.8440   67.5160   42.1180 C.2   247  ASP247      0.3671
    129  OD1        8.9780   68.4040   41.9980 O.co2 247  ASP247     -0.2456
    130  OD2        9.9290   66.7870   43.1280 O.co2 247  ASP247     -0.2456
    131  N          9.6850   71.2580   42.7560 N.3   250  LEU250     -0.1231
    132  CA        10.9330   71.6950   43.3680 C.3   250  LEU250      0.1693
    133  C         11.8940   72.4170   42.4320 C.2   250  LEU250      0.2591
    134  O         12.7070   73.2260   42.8870 O.2   250  LEU250     -0.2718
    135  CB        11.6670   70.4990   43.9850 C.3   250  LEU250      0.0284
    136  CG        11.3260   70.1040   45.4260 C.3   250  LEU250      0.0019
    137  CD1        9.8390   69.8290   45.5600 C.3   250  LEU250      0.0001
    138  CD2       12.1390   68.8760   45.8130 C.3   250  LEU250      0.0001
    139  N         11.7970   72.1440   41.1330 N.am  251  LEU251     -0.1980
    140  CA        12.7220   72.7440   40.1750 C.3   251  LEU251      0.1596
    141  C         12.1350   73.6020   39.0580 C.2   251  LEU251      0.2287
    142  O         12.8840   74.1660   38.2580 O.2   251  LEU251     -0.2864
    143  CB        13.5850   71.6350   39.5630 C.3   251  LEU251      0.0297
    144  CG        14.3580   70.7900   40.5780 C.3   251  LEU251      0.0022
    145  CD1       14.9610   69.5730   39.8920 C.3   251  LEU251      0.0001
    146  CD2       15.4390   71.6430   41.2280 C.3   251  LEU251      0.0001
    147  N          8.2850   63.4400   39.1840 N.3   264  ALA264     -0.1245
    148  CA         7.9310   62.9680   40.5130 C.3   264  ALA264      0.1562
    149  C          6.4950   63.3670   40.8320 C.2   264  ALA264      0.2260
    150  O          6.0270   64.4260   40.4130 O.2   264  ALA264     -0.2867
    151  CB         8.8810   63.5640   41.5470 C.3   264  ALA264      0.0290
@<TRIPOS>BOND
     1   101   102    1
     2   102   105    1
     3   102   103    1
     4   113   114    1
     5   113   110    1
     6   119   121   ar
     7   119   116   ar
     8   121   122   ar
     9   114   116   ar
    10   114   115   ar
    11   116   118   ar
    12   105   106    1
    13   103   109   am
    14   103   104    2
    15   122   120   ar
    16   115   117   ar
    17   118   120   ar
    18   118   117   ar
    19   109   110    1
    20   110   111    1
    21   107   106    1
    22    17    18    1
    23   106   108    1
    24    58    59    1
    25    20    19    2
    26    61    60    2
    27   111   112    2
    28   111   123   am
    29    16    15    1
    30    43    42    2
    31    28    31    1
    32    28    27    1
    33    28    29    1
    34    19    27   am
    35    19    18    1
    36    31    32    1
    37    27    33    1
    38    42    41    1
    39    11    12    2
    40    11    10    1
    41    18    21    1
    42    73    72    2
    43   142   141    2
    44    60    59    1
    45    13    10    1
    46    13    14    1
    47    70    71    1
    48   123   124    1
    49    33    32    1
    50    30    29    2
    51    59    62    1
    52    29    34   am
    53   141   140    1
    54    10     9    1
    55   147   148    1
    56    14    15    1
    57    74    71    1
    58    74    75    1
    59    72    71    1
    60   125   124    1
    61   125   126    2
    62    21    22    1
    63   143   140    1
    64   143   144    1
    65   124   127    1
    66    41    40    1
    67    41    44    1
    68   145   144    1
    69    40    36   am
    70    62    63    1
    71    34    35    1
    72   140   139    1
    73    44    45    1
    74     9     3   am
    75    75    76    1
    76   150   149    2
    77   148   149    1
    78   148   151    1
    79    76    77    1
    80   144   146    1
    81    36    35    1
    82    36    37    2
    83    22    24   ar
    84    22    23   ar
    85   127   128    1
    86    35    38    1
    87   139   133   am
    88    63    65   ar
    89    63    64   ar
    90    24    26   ar
    91    65    67   ar
    92     3     4    2
    93     3     2    1
    94    23    25   ar
    95    45    46   ar
    96    45    47   ar
    97   129   128   ar
    98    64    66   ar
    99   128   130   ar
   100    46    48   ar
   101     1     2    1
   102   133   134    2
   103   133   132    1
   104    38    39    1
   105    26    25   ar
   106     2     5    1
   107    67    68   ar
   108    47    49   ar
   109   131   132    1
   110    95    94    2
   111    99    98   ar
   112    66    68   ar
   113    97    98    1
   114    97    96    1
   115     8     6   ar
   116   132   135    1
   117    68    69    1
   118    98   100   ar
   119    48    50   ar
   120    93    94    1
   121    93    96    1
   122    93    92    1
   123   135   136    1
   124     5     6    1
   125    49    50   ar
   126     6     7   ar
   127    51    52    1
   128   136   137    1
   129   136   138    1
   130    56    55    1
   131    53    52    1
   132    53    54    2
   133    52    55    1
   134    55    57    1
   135    81    80    2
   136    82    83    1
   137    82    79    1
   138    84    83   ar
   139    84    86   ar
   140    83    85   ar
   141    80    79    1
   142    86    87   ar
   143    79    78    1
   144    85    88   ar
   145    85    87   ar
   146    88    90   ar
   147    87    89   ar
   148    90    91   ar
   149    89    91   ar
