@<TRIPOS>MOLECULE
tmp/1r82A00.pdb
 176 172 0 0 0
SMALL
GASTEIGER

@<TRIPOS>ATOM
      1  N          3.5850   52.2800   48.7130 N.3    64  TYR64      -0.1241
      2  CA         3.8830   52.6480   47.3350 C.3    64  TYR64       0.1605
      3  C          2.9590   52.0380   46.2910 C.2    64  TYR64       0.2264
      4  O          2.9720   52.4550   45.1350 O.2    64  TYR64      -0.2867
      5  CB         5.3400   52.3210   46.9960 C.3    64  TYR64       0.0534
      6  CG         6.3200   53.2870   47.6160 C.ar   64  TYR64      -0.0201
      7  CD1        6.6170   53.2350   48.9780 C.ar   64  TYR64      -0.0009
      8  CD2        6.9200   54.2830   46.8500 C.ar   64  TYR64      -0.0009
      9  CE1        7.4870   54.1560   49.5610 C.ar   64  TYR64       0.0417
     10  CE2        7.7880   55.2100   47.4220 C.ar   64  TYR64       0.0417
     11  CZ         8.0670   55.1410   48.7770 C.ar   64  TYR64       0.1957
     12  OH         8.9210   56.0600   49.3450 O.3    64  TYR64      -0.2866
     13  N         11.5060   54.2680   39.3410 N.3   129  ASP129     -0.1239
     14  CA        10.7910   54.3730   40.6090 C.3   129  ASP129      0.1674
     15  C          9.3100   54.5130   40.2650 C.2   129  ASP129      0.2266
     16  O          8.9560   55.0580   39.2160 O.2   129  ASP129     -0.2867
     17  CB        11.2730   55.5860   41.4160 C.3   129  ASP129      0.1410
     18  CG        12.6390   55.3640   42.0560 C.2   129  ASP129      0.3668
     19  OD1       13.1010   54.2050   42.1170 O.co2 129  ASP129     -0.2456
     20  OD2       13.2490   56.3530   42.5140 O.co2 129  ASP129     -0.2456
     21  N          6.7980   56.0930   42.2670 N.3   131  ASP131     -0.1225
     22  CA         6.1480   57.3430   42.6680 C.3   131  ASP131      0.1805
     23  C          6.4770   58.4430   41.6630 C.2   131  ASP131      0.2597
     24  O          7.0360   59.4920   42.0040 O.2   131  ASP131     -0.2718
     25  CB         6.5710   57.7620   44.0870 C.3   131  ASP131      0.1424
     26  CG         8.0790   57.7770   44.2850 C.2   131  ASP131      0.3668
     27  OD1        8.5300   58.3860   45.2780 O.co2 131  ASP131     -0.2456
     28  OD2        8.8160   57.1800   43.4720 O.co2 131  ASP131     -0.2456
     29  N          6.0890   58.1820   40.4200 N.am  132  MET132     -0.1979
     30  CA         6.3370   59.0730   39.2960 C.3   132  MET132      0.1605
     31  C          5.1700   59.0030   38.3230 C.2   132  MET132      0.2287
     32  O          4.2810   58.1670   38.4610 O.2   132  MET132     -0.2864
     33  CB         7.5780   58.6070   38.5400 C.3   132  MET132      0.0413
     34  CG         8.8190   58.4230   39.3750 C.3   132  MET132      0.0598
     35  SD         9.5750   60.0030   39.7210 S.3   132  MET132     -0.1393
     36  CE        10.2010   60.4310   38.1000 C.3   132  MET132      0.0692
     37  N         20.8830   63.3090   37.1760 N.3   151  HIS151     -0.1227
     38  CA        20.1030   63.7150   38.3350 C.3   151  HIS151      0.1737
     39  C         19.7620   65.1950   38.1380 C.2   151  HIS151      0.2438
     40  O         20.6410   66.0110   37.8640 O.2   151  HIS151     -0.2733
     41  CB        20.9320   63.5090   39.6040 C.3   151  HIS151      0.0758
     42  CG        20.1620   63.7290   40.8670 C.ar  151  HIS151      0.0818
     43  ND1       20.0430   62.7660   41.8460 N.ar  151  HIS151     -0.2268
     44  CD2       19.4740   64.8060   41.3120 C.ar  151  HIS151      0.1154
     45  CE1       19.3130   63.2400   42.8400 C.ar  151  HIS151      0.1986
     46  NE2       18.9560   64.4760   42.5410 N.ar  151  HIS151     -0.2212
     47  N         18.4800   65.5620   38.2830 N.am  152  PRO152     -0.2718
     48  CA        18.0700   66.9570   38.0970 C.3   152  PRO152      0.1535
     49  C         18.6910   68.0090   39.0090 C.2   152  PRO152      0.2599
     50  O         18.6980   69.1930   38.6690 O.2   152  PRO152     -0.2715
     51  CB        16.5470   66.8880   38.2300 C.3   152  PRO152      0.0310
     52  CG        16.3360   65.7530   39.1600 C.3   152  PRO152      0.0237
     53  CD        17.3310   64.7250   38.6710 C.3   152  PRO152      0.0939
     54  N         19.2180   67.5880   40.1530 N.am  153  SER153     -0.1936
     55  CA        19.8230   68.5300   41.0880 C.3   153  SER153      0.2055
     56  C         21.2920   68.8270   40.7940 C.2   153  SER153      0.2643
     57  O         21.8310   69.8170   41.2880 O.2   153  SER153     -0.2714
     58  CB        19.7040   68.0050   42.5250 C.3   153  SER153      0.2130
     59  OG        18.3500   67.8350   42.9130 O.3   153  SER153     -0.2179
     60  N         21.9400   67.9940   39.9800 N.am  154  PHE154     -0.1973
     61  CA        23.3630   68.1940   39.7140 C.3   154  PHE154      0.1639
     62  C         23.8320   68.3170   38.2670 C.2   154  PHE154      0.2290
     63  O         25.0380   68.3390   38.0210 O.2   154  PHE154     -0.2864
     64  CB        24.1740   67.0660   40.3620 C.3   154  PHE154      0.0560
     65  CG        23.8310   66.8130   41.8000 C.ar  154  PHE154     -0.0200
     66  CD1       22.8140   65.9260   42.1420 C.ar  154  PHE154     -0.0042
     67  CD2       24.5220   67.4620   42.8150 C.ar  154  PHE154     -0.0042
     68  CE1       22.4940   65.6910   43.4790 C.ar  154  PHE154     -0.0003
     69  CE2       24.2090   67.2340   44.1520 C.ar  154  PHE154     -0.0003
     70  CZ        23.1940   66.3470   44.4840 C.ar  154  PHE154     -0.0000
     71  N         27.0850   64.3200   45.0680 N.3   163  THR163     -0.1218
     72  CA        26.9940   63.6080   46.3370 C.3   163  THR163      0.1862
     73  C         27.4140   62.1430   46.2540 C.2   163  THR163      0.2287
     74  O         26.7160   61.2540   46.7410 O.2   163  THR163     -0.2866
     75  CB        25.5740   63.7000   46.9400 C.3   163  THR163      0.1770
     76  OG1       24.6120   63.1980   46.0060 O.3   163  THR163     -0.2211
     77  CG2       25.2410   65.1430   47.2730 C.3   163  THR163      0.0375
     78  N         26.4830   62.9460   37.7390 N.3   182  TYR182     -0.1241
     79  CA        25.8550   62.3080   38.8790 C.3   182  TYR182      0.1605
     80  C         24.5490   61.7570   38.3220 C.2   182  TYR182      0.2264
     81  O         23.6460   62.5120   37.9440 O.2   182  TYR182     -0.2867
     82  CB        25.5580   63.2840   40.0170 C.3   182  TYR182      0.0534
     83  CG        25.1190   62.5390   41.2580 C.ar  182  TYR182     -0.0201
     84  CD1       26.0570   61.9300   42.0930 C.ar  182  TYR182     -0.0009
     85  CD2       23.7680   62.3650   41.5500 C.ar  182  TYR182     -0.0009
     86  CE1       25.6620   61.1620   43.1870 C.ar  182  TYR182      0.0417
     87  CE2       23.3570   61.5960   42.6430 C.ar  182  TYR182      0.0417
     88  CZ        24.3110   60.9980   43.4550 C.ar  182  TYR182      0.1957
     89  OH        23.9130   60.2430   44.5310 O.3   182  TYR182     -0.2866
     90  N         21.0090   59.5930   38.5590 N.3   184  MET184     -0.1245
     91  CA        19.9990   59.3120   39.5730 C.3   184  MET184      0.1570
     92  C         19.5290   57.8640   39.4250 C.2   184  MET184      0.2261
     93  O         19.2620   57.4020   38.3190 O.2   184  MET184     -0.2867
     94  CB        18.8260   60.2800   39.4340 C.3   184  MET184      0.0387
     95  CG        17.7640   60.1130   40.5110 C.3   184  MET184      0.0595
     96  SD        16.6500   61.5250   40.5840 S.3   184  MET184     -0.1393
     97  CE        16.0910   61.3980   42.2880 C.3   184  MET184      0.0692
     98  N         16.7830   56.5460   39.9530 N.3   186  ALA186     -0.1245
     99  CA        15.3660   56.4150   39.6320 C.3   186  ALA186      0.1562
    100  C         15.0410   56.0920   38.1770 C.2   186  ALA186      0.2260
    101  O         13.8800   55.8860   37.8430 O.2   186  ALA186     -0.2867
    102  CB        14.6300   57.6950   40.0470 C.3   186  ALA186      0.0290
    103  N         24.2070   57.3140   49.6070 N.3   218  TRP218     -0.1241
    104  CA        22.9220   57.2470   48.9210 C.3   218  TRP218      0.1605
    105  C         22.5900   55.8370   48.4450 C.2   218  TRP218      0.2264
    106  O         21.9580   55.6370   47.4060 O.2   218  TRP218     -0.2867
    107  CB        22.8660   58.2600   47.7710 C.3   218  TRP218      0.0550
    108  CG        22.7290   59.6730   48.2790 C.ar  218  TRP218      0.0003
    109  CD1       23.6770   60.6560   48.2450 C.ar  218  TRP218      0.0946
    110  CD2       21.5990   60.2300   48.9680 C.ar  218  TRP218      0.0152
    111  NE1       23.2090   61.7890   48.8730 N.ar  218  TRP218     -0.2442
    112  CE2       21.9380   61.5540   49.3260 C.ar  218  TRP218      0.0810
    113  CE3       20.3340   59.7360   49.3210 C.ar  218  TRP218      0.0012
    114  CZ2       21.0560   62.3940   50.0190 C.ar  218  TRP218      0.0191
    115  CZ3       19.4560   60.5730   50.0110 C.ar  218  TRP218      0.0001
    116  CH2       19.8250   61.8860   50.3530 C.ar  218  TRP218      0.0015
    117  N         22.1330   54.0000   44.7120 N.3   221  GLU221     -0.1245
    118  CA        22.4950   55.0660   43.7820 C.3   221  GLU221      0.1567
    119  C         23.9870   55.3910   43.8390 C.2   221  GLU221      0.2260
    120  O         24.5960   55.7410   42.8240 O.2   221  GLU221     -0.2867
    121  CB        21.6730   56.3190   44.0820 C.3   221  GLU221      0.0388
    122  CG        22.0290   57.5170   43.2260 C.3   221  GLU221      0.1160
    123  CD        21.0850   58.6740   43.4530 C.2   221  GLU221      0.3649
    124  OE1       20.0000   58.6850   42.8350 O.co2 221  GLU221     -0.2457
    125  OE2       21.4220   59.5620   44.2660 O.co2 221  GLU221     -0.2457
    126  N         13.9000   62.9250   34.1040 N.3   242  LEU242     -0.1231
    127  CA        13.7520   62.8040   35.5610 C.3   242  LEU242      0.1693
    128  C         13.6860   64.2060   36.1340 C.2   242  LEU242      0.2592
    129  O         14.7170   64.8340   36.3750 O.2   242  LEU242     -0.2718
    130  CB        14.9300   62.0700   36.2000 C.3   242  LEU242      0.0284
    131  CG        14.8730   60.5480   36.2860 C.3   242  LEU242      0.0019
    132  CD1       16.1210   60.0560   36.9970 C.3   242  LEU242      0.0001
    133  CD2       13.6210   60.1050   37.0520 C.3   242  LEU242      0.0001
    134  N         12.4730   64.6920   36.3710 N.am  243  TRP243     -0.1962
    135  CA        12.3090   66.0480   36.8750 C.3   243  TRP243      0.1771
    136  C         11.2640   66.1720   37.9780 C.2   243  TRP243      0.2619
    137  O         10.4830   65.2560   38.2210 O.2   243  TRP243     -0.2715
    138  CB        11.9300   66.9610   35.7040 C.3   243  TRP243      0.0590
    139  CG        12.2050   68.4090   35.9400 C.ar  243  TRP243      0.0006
    140  CD1       11.2920   69.3920   36.2000 C.ar  243  TRP243      0.0946
    141  CD2       13.4880   69.0380   35.9490 C.ar  243  TRP243      0.0152
    142  NE1       11.9320   70.5970   36.3720 N.ar  243  TRP243     -0.2442
    143  CE2       13.2810   70.4080   36.2240 C.ar  243  TRP243      0.0810
    144  CE3       14.7970   68.5770   35.7530 C.ar  243  TRP243      0.0012
    145  CZ2       14.3350   71.3220   36.3080 C.ar  243  TRP243      0.0191
    146  CZ3       15.8450   69.4830   35.8360 C.ar  243  TRP243      0.0001
    147  CH2       15.6070   70.8440   36.1120 C.ar  243  TRP243      0.0015
    148  N         11.2800   67.3180   38.6500 N.am  244  ASP244     -0.1971
    149  CA        10.3270   67.6400   39.7070 C.3   244  ASP244      0.1709
    150  C         10.0620   69.1240   39.4930 C.2   244  ASP244      0.2293
    151  O         10.8710   69.9690   39.8840 O.2   244  ASP244     -0.2864
    152  CB        10.9310   67.4140   41.0950 C.3   244  ASP244      0.1436
    153  CG         9.9090   67.5910   42.2070 C.2   244  ASP244      0.3671
    154  OD1        9.0290   68.4600   42.0610 O.co2 244  ASP244     -0.2456
    155  OD2        9.9850   66.8690   43.2240 O.co2 244  ASP244     -0.2456
    156  N          9.7880   71.4210   42.7390 N.3   247  LEU247     -0.1231
    157  CA        11.0500   71.7500   43.3860 C.3   247  LEU247      0.1693
    158  C         12.0300   72.4880   42.4740 C.2   247  LEU247      0.2591
    159  O         12.8440   73.2870   42.9460 O.2   247  LEU247     -0.2718
    160  CB        11.7100   70.4650   43.8970 C.3   247  LEU247      0.0284
    161  CG        12.1580   70.4140   45.3600 C.3   247  LEU247      0.0019
    162  CD1       10.9970   70.7790   46.2720 C.3   247  LEU247      0.0001
    163  CD2       12.6700   69.0150   45.6770 C.3   247  LEU247      0.0001
    164  N         11.9360   72.2400   41.1700 N.am  248  LEU248     -0.1980
    165  CA        12.8680   72.8350   40.2170 C.3   248  LEU248      0.1596
    166  C         12.2770   73.7020   39.1070 C.2   248  LEU248      0.2287
    167  O         13.0180   74.2520   38.2910 O.2   248  LEU248     -0.2864
    168  CB        13.7020   71.7140   39.5900 C.3   248  LEU248      0.0297
    169  CG        14.5170   70.8840   40.5850 C.3   248  LEU248      0.0022
    170  CD1       14.9290   69.5640   39.9490 C.3   248  LEU248      0.0001
    171  CD2       15.7330   71.6780   41.0260 C.3   248  LEU248      0.0001
    172  N          8.3140   63.5010   39.2790 N.3   261  ALA261     -0.1245
    173  CA         7.9410   63.0560   40.6120 C.3   261  ALA261      0.1562
    174  C          6.4980   63.4450   40.9110 C.2   261  ALA261      0.2260
    175  O          6.0030   64.4570   40.4200 O.2   261  ALA261     -0.2867
    176  CB         8.8750   63.6790   41.6450 C.3   261  ALA261      0.0290
@<TRIPOS>BOND
     1   126   127    1
     2   127   128    1
     3   127   130    1
     4   138   139    1
     5   138   135    1
     6   144   146   ar
     7   144   141   ar
     8   146   147   ar
     9   139   141   ar
    10   139   140   ar
    11   141   143   ar
    12   147   145   ar
    13   128   134   am
    14   128   129    2
    15   130   131    1
    16   140   142   ar
    17   143   145   ar
    18   143   142   ar
    19   131   132    1
    20   131   133    1
    21   134   135    1
    22   135   136    1
    23    37    38    1
    24    78    79    1
    25   101   100    2
    26    40    39    2
    27    81    80    2
    28   136   137    2
    29   136   148   am
    30    63    62    2
    31    48    51    1
    32    48    47    1
    33    48    49    1
    34    36    35    1
    35    39    47   am
    36    39    38    1
    37   100    99    1
    38    51    52    1
    39    62    61    1
    40    47    53    1
    41   167   166    2
    42    93    92    2
    43    80    79    1
    44    31    32    2
    45    31    30    1
    46    38    41    1
    47    33    30    1
    48    33    34    1
    49    90    91    1
    50   148   149    1
    51    50    49    2
    52    53    52    1
    53    79    82    1
    54    49    54   am
    55   166   165    1
    56    16    15    2
    57   172   173    1
    58    30    29    1
    59    13    14    1
    60    34    35    1
    61    92    91    1
    62    94    91    1
    63    94    95    1
    64   150   149    1
    65   150   151    2
    66   168   165    1
    67   168   169    1
    68    41    42    1
    69    99    98    1
    70    99   102    1
    71   149   152    1
    72    61    60    1
    73    61    64    1
    74   170   169    1
    75    60    56   am
    76    82    83    1
    77    54    55    1
    78   165   164    1
    79    15    14    1
    80    64    65    1
    81    29    23   am
    82   175   174    2
    83    95    96    1
    84    96    97    1
    85   169   171    1
    86    14    17    1
    87   173   174    1
    88   173   176    1
    89    56    55    1
    90    56    57    2
    91    42    44   ar
    92    42    43   ar
    93    55    58    1
    94   152   153    1
    95   164   158   am
    96    83    85   ar
    97    83    84   ar
    98    44    46   ar
    99    17    18    1
   100    85    87   ar
   101    23    24    2
   102    23    22    1
   103    65    66   ar
   104    65    67   ar
   105    43    45   ar
   106    18    19   ar
   107    18    20   ar
   108   154   153   ar
   109    84    86   ar
   110    66    68   ar
   111   153   155   ar
   112    21    22    1
   113   158   159    2
   114   158   157    1
   115    58    59    1
   116    46    45   ar
   117    87    88   ar
   118    22    25    1
   119   156   157    1
   120    67    69   ar
   121   120   119    2
   122   124   123   ar
   123    86    88   ar
   124   122   123    1
   125   122   121    1
   126   157   160    1
   127   123   125   ar
   128    88    89    1
   129    28    26   ar
   130    68    70   ar
   131   118   119    1
   132   118   121    1
   133   118   117    1
   134   160   161    1
   135    25    26    1
   136    69    70   ar
   137    26    27   ar
   138    71    72    1
   139     4     3    2
   140   161   163    1
   141   161   162    1
   142    76    75    1
   143    73    72    1
   144    73    74    2
   145     3     2    1
   146    72    75    1
   147     8    10   ar
   148     8     6   ar
   149    75    77    1
   150     5     2    1
   151     5     6    1
   152     2     1    1
   153   106   105    2
   154    10    11   ar
   155     6     7   ar
   156   107   108    1
   157   107   104    1
   158   109   108   ar
   159   109   111   ar
   160   108   110   ar
   161   105   104    1
   162    11    12    1
   163    11     9   ar
   164   111   112   ar
   165   104   103    1
   166   110   113   ar
   167   110   112   ar
   168     7     9   ar
   169   113   115   ar
   170   112   114   ar
   171   115   116   ar
   172   114   116   ar
