@<TRIPOS>MOLECULE
tmp/1r8qA00.pdb
 105 100 0 0 0
SMALL
GASTEIGER

@<TRIPOS>ATOM
      1  N         11.4800   14.5070   42.7640 N.3    25  ASP25      -0.1225
      2  CA        10.8990   13.8200   43.9370 C.3    25  ASP25       0.1805
      3  C         10.7640   14.7660   45.1100 C.2    25  ASP25       0.2598
      4  O         11.6470   15.5610   45.3780 O.2    25  ASP25      -0.2718
      5  CB        11.8090   12.7140   44.3890 C.3    25  ASP25       0.1424
      6  CG        11.7980   11.5740   43.4950 C.2    25  ASP25       0.3668
      7  OD1       10.7230   11.3230   42.8700 O.co2  25  ASP25      -0.2456
      8  OD2       12.8260   10.8210   43.4580 O.co2  25  ASP25      -0.2456
      9  N          9.6340   14.6570   45.7910 N.am   26  ALA26      -0.1966
     10  CA         9.2900   15.4610   46.9690 C.3    26  ALA26       0.1728
     11  C          8.8670   16.9070   46.7240 C.2    26  ALA26       0.2616
     12  O          8.6170   17.6620   47.6930 O.2    26  ALA26      -0.2715
     13  CB        10.3810   15.3460   48.0790 C.3    26  ALA26       0.0334
     14  N          8.7000   17.3090   45.4590 N.am   27  ALA27      -0.1963
     15  CA         8.3630   18.7130   45.1880 C.3    27  ALA27       0.1728
     16  C          6.9170   19.0240   45.5970 C.2    27  ALA27       0.2617
     17  O          6.6220   20.1760   45.8910 O.2    27  ALA27      -0.2715
     18  CB         8.4850   19.0010   43.7300 C.3    27  ALA27       0.0334
     19  N          6.0480   18.0130   45.5600 N.am   28  GLY28      -0.1940
     20  CA         4.6370   18.1320   45.9020 C.3    28  GLY28       0.2014
     21  C          3.5920   17.6680   44.8880 C.2    28  GLY28       0.2639
     22  O          2.4430   18.0610   44.9790 O.2    28  GLY28      -0.2714
     23  N          4.0020   16.9190   43.8550 N.am   29  LYS29      -0.1963
     24  CA         3.1320   16.5740   42.7570 C.3    29  LYS29       0.1728
     25  C          2.0030   15.7540   43.2420 C.2    29  LYS29       0.2617
     26  O          0.8390   16.0650   42.8980 O.2    29  LYS29      -0.2715
     27  CB         3.9270   15.8140   41.6670 C.3    29  LYS29       0.0311
     28  CG         5.0630   16.6620   41.1250 C.3    29  LYS29       0.0038
     29  CD         5.8850   15.8480   40.0830 C.3    29  LYS29       0.0206
     30  CE         6.4960   14.5720   40.6060 C.3    29  LYS29       0.1093
     31  NZ         7.6270   14.7150   41.5480 N.3    29  LYS29      -0.1314
     32  N          2.2830   14.6830   43.9950 N.am   30  THR30      -0.1937
     33  CA         1.1870   13.8110   44.4400 C.3    30  THR30       0.2028
     34  C          0.1170   14.5750   45.2800 C.2    30  THR30       0.2642
     35  O         -1.0710   14.3980   45.1380 O.2    30  THR30      -0.2714
     36  CB         1.8140   12.6090   45.1600 C.3    30  THR30       0.1808
     37  OG1        2.5700   11.7960   44.1590 O.3    30  THR30      -0.2208
     38  CG2        0.8250   11.7850   45.8980 C.3    30  THR30       0.0379
     39  N          0.6300   15.4610   46.1290 N.am   31  THR31      -0.1950
     40  CA        -0.1580   16.2640   47.0060 C.3    31  THR31       0.1897
     41  C         -1.0880   17.1990   46.2150 C.2    31  THR31       0.2313
     42  O         -2.2890   17.3010   46.4810 O.2    31  THR31      -0.2863
     43  CB         0.7680   17.1010   47.9080 C.3    31  THR31       0.1794
     44  OG1        1.5540   16.2080   48.7290 O.3    31  THR31      -0.2208
     45  CG2       -0.0990   17.9110   48.9040 C.3    31  THR31       0.0378
     46  N         -0.5930    8.7000   37.8190 N.3    53  GLU53      -0.1245
     47  CA        -1.3570    9.6120   38.6450 C.3    53  GLU53       0.1567
     48  C         -1.9390   10.6170   37.6730 C.2    53  GLU53       0.2260
     49  O         -1.2120   11.3820   37.0360 O.2    53  GLU53      -0.2867
     50  CB        -0.4590   10.3250   39.6630 C.3    53  GLU53       0.0388
     51  CG         0.1810    9.4880   40.7160 C.3    53  GLU53       0.1160
     52  CD         1.1670   10.3110   41.5660 C.2    53  GLU53       0.3649
     53  OE1        2.2480   10.6120   41.0580 O.co2  53  GLU53      -0.2457
     54  OE2        0.8440   10.6770   42.7220 O.co2  53  GLU53      -0.2457
     55  N          6.2920   25.7400   45.2360 N.3   125  ASN125     -0.1225
     56  CA         5.4830   25.0890   46.2800 C.3   125  ASN125      0.1785
     57  C          6.1710   25.1660   47.5960 C.2   125  ASN125      0.2597
     58  O          7.3370   25.4380   47.6670 O.2   125  ASN125     -0.2718
     59  CB         5.2500   23.6390   45.8740 C.3   125  ASN125      0.1169
     60  CG         4.2240   22.9350   46.7300 C.2   125  ASN125      0.2627
     61  OD1        3.2280   23.5960   47.1330 O.2   125  ASN125     -0.2716
     62  ND2        4.4490   21.6080   47.0600 N.am  125  ASN125     -0.0877
     63  N          5.4430   24.8790   48.6480 N.am  126  LYS126     -0.1980
     64  CA         5.9690   24.8200   50.0340 C.3   126  LYS126      0.1596
     65  C          6.2350   26.2110   50.5630 C.2   126  LYS126      0.2287
     66  O          7.0990   26.4170   51.4050 O.2   126  LYS126     -0.2864
     67  CB         7.1430   23.8730   50.2810 C.3   126  LYS126      0.0298
     68  CG         6.9990   22.4970   49.6270 C.3   126  LYS126      0.0038
     69  CD         7.7360   21.4280   50.2970 C.3   126  LYS126      0.0206
     70  CE         7.6680   20.0980   49.5680 C.3   126  LYS126      0.1093
     71  NZ         8.6560   19.0660   50.0560 N.3   126  LYS126     -0.1314
     72  N          4.5770   27.7280   52.7250 N.3   128  ASP128     -0.1225
     73  CA         4.3570   27.7760   54.1680 C.3   128  ASP128      0.1805
     74  C          5.6090   27.5910   55.0320 C.2   128  ASP128      0.2597
     75  O          5.5810   27.8530   56.2330 O.2   128  ASP128     -0.2718
     76  CB         3.3420   26.7270   54.5590 C.3   128  ASP128      0.1424
     77  CG         3.7960   25.3120   54.1890 C.2   128  ASP128      0.3668
     78  OD1        4.1140   25.0840   53.0030 O.co2 128  ASP128     -0.2456
     79  OD2        3.9700   24.4250   55.0280 O.co2 128  ASP128     -0.2456
     80  N          6.6960   27.0930   54.4540 N.am  129  LEU129     -0.1979
     81  CA         7.9110   26.8270   55.2260 C.3   129  LEU129      0.1596
     82  C          8.6870   28.1350   55.4350 C.2   129  LEU129      0.2287
     83  O          8.7880   28.9720   54.5430 O.2   129  LEU129     -0.2864
     84  CB         8.7410   25.7160   54.5720 C.3   129  LEU129      0.0297
     85  CG         8.0980   24.3470   54.4720 C.3   129  LEU129      0.0022
     86  CD1        8.8940   23.3650   53.6400 C.3   129  LEU129      0.0001
     87  CD2        7.7940   23.7680   55.9220 C.3   129  LEU129      0.0001
     88  N          0.9840   26.5350   48.3640 N.3   158  CYS158     -0.1221
     89  CA         1.1460   25.5760   49.4560 C.3   158  CYS158      0.1808
     90  C          0.1960   24.4040   49.1160 C.2   158  CYS158      0.2601
     91  O         -0.9990   24.5900   49.1980 O.2   158  CYS158     -0.2717
     92  CB         0.7770   26.2460   50.8220 C.3   158  CYS158      0.0970
     93  SG         0.6250   24.9640   52.0690 S.3   158  CYS158     -0.0800
     94  N          0.7350   23.2400   48.6770 N.am  159  ALA159     -0.1965
     95  CA        -0.0920   22.1700   48.1710 C.3   159  ALA159      0.1728
     96  C         -0.8920   21.4980   49.2590 C.2   159  ALA159      0.2616
     97  O         -1.9530   20.9160   48.9630 O.2   159  ALA159     -0.2715
     98  CB         0.7140   21.1430   47.3880 C.3   159  ALA159      0.0334
     99  N         -0.3730   21.5370   50.4700 N.am  160  THR160     -0.1951
    100  CA        -1.0930   20.8780   51.5710 C.3   160  THR160      0.1897
    101  C         -2.3820   21.6450   51.9110 C.2   160  THR160      0.2313
    102  O         -3.3260   21.0520   52.4170 O.2   160  THR160     -0.2863
    103  CB        -0.2350   20.7040   52.8170 C.3   160  THR160      0.1794
    104  OG1        0.3330   21.9300   53.1820 O.3   160  THR160     -0.2208
    105  CG2        0.9940   19.7460   52.6450 C.3   160  THR160      0.0378
@<TRIPOS>BOND
     1    49    48    2
     2    48    47    1
     3    46    47    1
     4    47    50    1
     5    50    51    1
     6    29    30    1
     7    29    28    1
     8    30    31    1
     9    51    52    1
    10    53    52   ar
    11    28    27    1
    12    52    54   ar
    13    27    24    1
    14    24    25    1
    15    24    23    1
    16     1     2    1
    17     7     6   ar
    18    26    25    2
    19    25    32   am
    20     8     6   ar
    21     6     5    1
    22    18    15    1
    23    23    21   am
    24     2     5    1
    25     2     3    1
    26    32    33    1
    27    37    36    1
    28    33    36    1
    29    33    34    1
    30    21    22    2
    31    21    20    1
    32     3     4    2
    33     3     9   am
    34    35    34    2
    35    36    38    1
    36    15    14    1
    37    15    16    1
    38    55    56    1
    39    34    39   am
    40    14    11   am
    41    19    16   am
    42    19    20    1
    43    16    17    2
    44     9    10    1
    45    59    56    1
    46    59    60    1
    47    39    40    1
    48    41    42    2
    49    41    40    1
    50    56    57    1
    51    11    10    1
    52    11    12    2
    53    60    62   am
    54    60    61    2
    55    10    13    1
    56    40    43    1
    57    98    95    1
    58    57    58    2
    59    57    63   am
    60    43    44    1
    61    43    45    1
    62    95    94    1
    63    95    96    1
    64    88    89    1
    65    63    64    1
    66    94    90   am
    67    97    96    2
    68    90    91    2
    69    90    89    1
    70    96    99   am
    71    89    92    1
    72    70    71    1
    73    70    69    1
    74    68    67    1
    75    68    69    1
    76    64    67    1
    77    64    65    1
    78    99   100    1
    79    65    66    2
    80    92    93    1
    81   100   101    1
    82   100   103    1
    83   101   102    2
    84   105   103    1
    85    72    73    1
    86   103   104    1
    87    78    77   ar
    88    86    85    1
    89    73    76    1
    90    73    74    1
    91    77    76    1
    92    77    79   ar
    93    80    74   am
    94    80    81    1
    95    85    84    1
    96    85    87    1
    97    83    82    2
    98    84    81    1
    99    74    75    2
   100    81    82    1
