@<TRIPOS>MOLECULE
tmp/1r8xA00.pdb
 106 101 0 0 0
SMALL
GASTEIGER

@<TRIPOS>ATOM
      1  N         28.1670   12.0830  187.6370 N.3    37  THR37      -0.1218
      2  CA        28.4400   13.2840  186.8750 C.3    37  THR37       0.1862
      3  C         29.8610   13.7090  187.1670 C.2    37  THR37       0.2287
      4  O         30.0980   14.7550  187.8300 O.2    37  THR37      -0.2866
      5  CB        27.5010   14.4140  187.3230 C.3    37  THR37       0.1770
      6  OG1       27.7840   14.7320  188.6870 O.3    37  THR37      -0.2211
      7  CG2       26.0480   13.9780  187.3650 C.3    37  THR37       0.0375
      8  N         19.3660   28.7570  187.6290 N.3    62  ASP62      -0.1239
      9  CA        19.3850   27.3610  187.2320 C.3    62  ASP62       0.1674
     10  C         18.1380   26.8130  187.8560 C.2    62  ASP62       0.2266
     11  O         18.1070   26.4850  189.0570 O.2    62  ASP62      -0.2867
     12  CB        20.6540   26.6290  187.7290 C.3    62  ASP62       0.1410
     13  CG        20.6820   25.0830  187.3580 C.2    62  ASP62       0.3668
     14  OD1       19.6670   24.5190  186.8900 O.co2  62  ASP62      -0.2456
     15  OD2       21.6820   24.3230  187.5170 O.co2  62  ASP62      -0.2456
     16  N         15.4070   23.9120  188.4200 N.3    64  ALA64      -0.1231
     17  CA        15.6600   22.4410  188.4160 C.3    64  ALA64       0.1694
     18  C         17.1450   22.0460  188.3870 C.2    64  ALA64       0.2592
     19  O         17.6520   21.5310  187.3930 O.2    64  ALA64      -0.2718
     20  CB        14.9200   21.7220  187.2220 C.3    64  ALA64       0.0304
     21  N         17.7900   22.1880  189.5190 N.am   65  CYS65      -0.1956
     22  CA        19.2110   22.3420  189.5490 C.3    65  CYS65       0.1843
     23  C         19.8900   21.1090  190.0550 C.2    65  CYS65       0.2626
     24  O         21.0720   20.9270  189.7700 O.2    65  CYS65      -0.2714
     25  CB        19.5520   23.5290  190.4490 C.3    65  CYS65       0.0997
     26  SG        20.1470   23.1120  192.0830 S.3    65  CYS65      -0.0797
     27  N         19.1710   20.2950  190.8310 N.am   66  GLY66      -0.1940
     28  CA        19.6470   18.9820  191.2620 C.3    66  GLY66       0.2014
     29  C         20.8050   18.9570  192.2440 C.2    66  GLY66       0.2640
     30  O         20.8040   19.6740  193.2340 O.2    66  GLY66      -0.2714
     31  N         21.7820   18.1010  191.9740 N.am   67  THR67      -0.1936
     32  CA        22.9580   18.0010  192.8040 C.3    67  THR67       0.2028
     33  C         23.7560   19.2350  192.5790 C.2    67  THR67       0.2643
     34  O         24.6100   19.5550  193.3790 O.2    67  THR67      -0.2714
     35  CB        23.7920   16.8240  192.3930 C.3    67  THR67       0.1808
     36  OG1       23.5960   16.5850  191.0080 O.3    67  THR67      -0.2208
     37  CG2       23.2560   15.5990  192.9540 C.3    67  THR67       0.0379
     38  N         23.4970   19.8800  191.4440 N.am   68  GLY68      -0.1939
     39  CA        23.9490   21.2120  191.1370 C.3    68  GLY68       0.2014
     40  C         25.1710   21.2970  190.2710 C.2    68  GLY68       0.2639
     41  O         25.9110   22.2780  190.3630 O.2    68  GLY68      -0.2714
     42  N         25.3860   20.3070  189.4220 N.am   69  VAL69      -0.1963
     43  CA        26.6430   20.2480  188.6890 C.3    69  VAL69       0.1727
     44  C         26.7400   21.3470  187.6740 C.2    69  VAL69       0.2616
     45  O         27.7360   22.0560  187.6500 O.2    69  VAL69      -0.2715
     46  CB        26.9500   18.8900  188.0530 C.3    69  VAL69       0.0290
     47  CG1       27.9350   18.1140  188.9160 C.3    69  VAL69       0.0023
     48  CG2       25.6790   18.0810  187.7930 C.3    69  VAL69       0.0023
     49  N         25.7140   21.5230  186.8570 N.am   70  ASP70      -0.1971
     50  CA        25.7290   22.6550  185.9370 C.3    70  ASP70       0.1709
     51  C         26.0040   23.9450  186.7340 C.2    70  ASP70       0.2293
     52  O         26.8390   24.7740  186.3500 O.2    70  ASP70      -0.2864
     53  CB        24.4210   22.8170  185.1380 C.3    70  ASP70       0.1436
     54  CG        24.0050   21.5900  184.4470 C.2    70  ASP70       0.3671
     55  OD1       24.9170   20.9290  183.9090 O.co2  70  ASP70      -0.2456
     56  OD2       22.7900   21.2220  184.3930 O.co2  70  ASP70      -0.2456
     57  N         17.6990   15.8490  196.3150 N.3    90  MET90      -0.1245
     58  CA        18.6890   16.2900  195.3360 C.3    90  MET90       0.1570
     59  C         19.4370   17.4790  195.8070 C.2    90  MET90       0.2261
     60  O         20.6370   17.4860  195.6260 O.2    90  MET90      -0.2867
     61  CB        18.1130   16.5550  193.9500 C.3    90  MET90       0.0387
     62  CG        17.3620   15.3760  193.4840 C.3    90  MET90       0.0595
     63  SD        17.5200   14.7610  191.7580 S.3    90  MET90      -0.1393
     64  CE        19.2580   14.8740  191.4180 C.3    90  MET90       0.0692
     65  N         18.5490   22.3690  182.1260 N.3   136  LEU136     -0.1231
     66  CA        19.2390   21.4280  181.2170 C.3   136  LEU136      0.1693
     67  C         19.1690   19.9820  181.6720 C.2   136  LEU136      0.2592
     68  O         18.6010   19.7120  182.7260 O.2   136  LEU136     -0.2718
     69  CB        20.6960   21.8440  181.0480 C.3   136  LEU136      0.0284
     70  CG        20.8680   23.0710  180.1740 C.3   136  LEU136      0.0019
     71  CD1       22.3400   23.1890  179.7760 C.3   136  LEU136      0.0001
     72  CD2       19.9360   23.0280  178.9660 C.3   136  LEU136      0.0001
     73  N         19.7160   19.0640  180.8770 N.am  137  GLY137     -0.1957
     74  CA        19.7540   17.6550  181.2210 C.3   137  GLY137      0.1869
     75  C         18.4010   16.9360  181.2210 C.2   137  GLY137      0.2309
     76  O         18.3170   15.8750  181.7790 O.2   137  GLY137     -0.2863
     77  N         15.1080   17.8220  182.3720 N.3   139  SER139     -0.1217
     78  CA        14.3980   17.7020  183.6380 C.3   139  SER139      0.1889
     79  C         12.9860   18.2270  183.5150 C.2   139  SER139      0.2288
     80  O         12.1160   17.8700  184.2910 O.2   139  SER139     -0.2866
     81  CB        15.1510   18.4500  184.7300 C.3   139  SER139      0.2089
     82  OG        16.4920   18.0040  184.8430 O.3   139  SER139     -0.2183
     83  N         25.9470   15.5760  178.3100 N.3   193  TYR193     -0.1227
     84  CA        26.3920   16.5860  179.2950 C.3   193  TYR193      0.1736
     85  C         27.4240   15.9970  180.2340 C.2   193  TYR193      0.2595
     86  O         28.3820   16.6570  180.6640 O.2   193  TYR193     -0.2718
     87  CB        25.1910   17.1320  180.1380 C.3   193  TYR193      0.0548
     88  CG        24.1320   17.8580  179.3320 C.ar  193  TYR193     -0.0200
     89  CD1       22.9710   17.1970  178.9480 C.ar  193  TYR193     -0.0009
     90  CD2       24.3200   19.1950  178.9230 C.ar  193  TYR193     -0.0009
     91  CE1       22.0280   17.8380  178.1940 C.ar  193  TYR193      0.0417
     92  CE2       23.3900   19.8430  178.1740 C.ar  193  TYR193      0.0417
     93  CZ        22.2440   19.1590  177.8070 C.ar  193  TYR193      0.1957
     94  OH        21.2870   19.7790  177.0570 O.3   193  TYR193     -0.2866
     95  N         27.1810   14.7510  180.5890 N.am  194  TYR194     -0.1976
     96  CA        27.9540   14.0920  181.6070 C.3   194  TYR194      0.1639
     97  C         28.0040   12.7100  181.0920 C.2   194  TYR194      0.2290
     98  O         26.9830   11.9760  181.1760 O.2   194  TYR194     -0.2864
     99  CB        27.2580   14.1710  183.0030 C.3   194  TYR194      0.0560
    100  CG        27.3190   15.5720  183.5560 C.ar  194  TYR194     -0.0198
    101  CD1       26.2120   16.4020  183.4510 C.ar  194  TYR194     -0.0009
    102  CD2       28.5170   16.0870  184.0630 C.ar  194  TYR194     -0.0009
    103  CE1       26.2520   17.6620  183.8650 C.ar  194  TYR194      0.0417
    104  CE2       28.5740   17.3590  184.4920 C.ar  194  TYR194      0.0417
    105  CZ        27.4260   18.1570  184.3970 C.ar  194  TYR194      0.1957
    106  OH        27.4460   19.4750  184.8320 O.3   194  TYR194     -0.2866
@<TRIPOS>BOND
     1    94    93    1
     2    93    92   ar
     3    93    91   ar
     4    92    90   ar
     5    91    89   ar
     6    83    84    1
     7    90    88   ar
     8    89    88   ar
     9    72    70    1
    10    84    87    1
    11    84    85    1
    12    88    87    1
    13    71    70    1
    14    70    69    1
    15    85    95   am
    16    85    86    2
    17    95    96    1
    18    73    74    1
    19    73    67   am
    20    69    66    1
    21    97    98    2
    22    97    96    1
    23    66    67    1
    24    66    65    1
    25    74    75    1
    26    75    76    2
    27    96    99    1
    28    67    68    2
    29    77    78    1
    30    99   100    1
    31   101   100   ar
    32   101   103   ar
    33    79    78    1
    34    79    80    2
    35   100   102   ar
    36    78    81    1
    37   103   105   ar
    38    55    54   ar
    39   102   104   ar
    40    56    54   ar
    41   105   104   ar
    42   105   106    1
    43    54    53    1
    44    81    82    1
    45    53    50    1
    46    50    51    1
    47    50    49    1
    48    52    51    2
    49    49    44   am
    50     2     3    1
    51     2     5    1
    52     2     1    1
    53    14    13   ar
    54     3     4    2
    55    20    17    1
    56     9     8    1
    57     9    12    1
    58     9    10    1
    59     5     7    1
    60     5     6    1
    61    13    15   ar
    62    13    12    1
    63    19    18    2
    64    45    44    2
    65    44    43    1
    66    48    46    1
    67    10    11    2
    68    46    43    1
    69    46    47    1
    70    18    17    1
    71    18    21   am
    72    17    16    1
    73    43    42    1
    74    42    40   am
    75    21    22    1
    76    22    23    1
    77    22    25    1
    78    24    23    2
    79    23    27   am
    80    40    41    2
    81    40    39    1
    82    25    26    1
    83    27    28    1
    84    36    35    1
    85    39    38    1
    86    28    29    1
    87    64    63    1
    88    38    33   am
    89    63    62    1
    90    31    29   am
    91    31    32    1
    92    29    30    2
    93    35    32    1
    94    35    37    1
    95    33    32    1
    96    33    34    2
    97    62    61    1
    98    61    58    1
    99    58    59    1
   100    58    57    1
   101    60    59    2
