@<TRIPOS>MOLECULE
tmp/1r9jB01.pdb
 151 143 0 0 0
SMALL
GASTEIGER

@<TRIPOS>ATOM
      1  N         10.7480   16.7980   17.3230 N.3    28  HIS28      -0.1241
      2  CA        11.4540   17.9730   17.8210 C.3    28  HIS28       0.1621
      3  C         12.1180   18.7840   16.7090 C.2    28  HIS28       0.2264
      4  O         13.1560   18.3930   16.1790 O.2    28  HIS28      -0.2867
      5  CB        12.5140   17.5330   18.8330 C.3    28  HIS28       0.0745
      6  CG        11.9970   16.5860   19.8680 C.ar   28  HIS28       0.0817
      7  ND1       11.5980   15.3020   19.5640 N.ar   28  HIS28      -0.2268
      8  CD2       11.7750   16.7470   21.1950 C.ar   28  HIS28       0.1154
      9  CE1       11.1500   14.7130   20.6590 C.ar   28  HIS28       0.1986
     10  NE2       11.2460   15.5680   21.6620 N.ar   28  HIS28      -0.2212
     11  N         16.0430   22.0130   18.1030 N.3    31  THR31      -0.1218
     12  CA        17.4790   21.7650   17.9650 C.3    31  THR31       0.1862
     13  C         17.9160   21.5390   16.5160 C.2    31  THR31       0.2287
     14  O         18.9410   22.0670   16.0820 O.2    31  THR31      -0.2866
     15  CB        17.9190   20.5640   18.8460 C.3    31  THR31       0.1770
     16  OG1       18.0060   20.9920   20.2120 O.3    31  THR31      -0.2211
     17  CG2       19.2680   20.0190   18.4010 C.3    31  THR31       0.0375
     18  N         22.1470   14.1030   21.2000 N.3    66  ASN66      -0.1240
     19  CA        20.8390   14.6710   21.4940 C.3    66  ASN66       0.1653
     20  C         19.8820   14.1000   20.4430 C.2    66  ASN66       0.2266
     21  O         19.3520   14.8160   19.5900 O.2    66  ASN66      -0.2867
     22  CB        20.8770   16.2140   21.4670 C.3    66  ASN66       0.1155
     23  CG        21.6810   16.7840   20.3000 C.2    66  ASN66       0.2627
     24  OD1       21.7610   18.0050   20.1320 O.2    66  ASN66      -0.2716
     25  ND2       22.2780   15.9130   19.4960 N.am   66  ASN66      -0.0877
     26  N         16.8460   13.3160   20.1950 N.3    68  HIS68      -0.1241
     27  CA        15.5030   13.8110   19.9190 C.3    68  HIS68       0.1621
     28  C         15.5090   14.7110   18.6900 C.2    68  HIS68       0.2264
     29  O         14.4740   14.9060   18.0510 O.2    68  HIS68      -0.2867
     30  CB        14.9320   14.5650   21.1250 C.3    68  HIS68       0.0745
     31  CG        15.7890   15.6980   21.5930 C.ar   68  HIS68       0.0817
     32  ND1       16.9880   15.5040   22.2460 N.ar   68  HIS68      -0.2268
     33  CD2       15.6210   17.0390   21.5030 C.ar   68  HIS68       0.1154
     34  CE1       17.5210   16.6770   22.5400 C.ar   68  HIS68       0.1986
     35  NE2       16.7110   17.6250   22.0990 N.ar   68  HIS68      -0.2212
     36  N         13.7220    8.3340   17.3410 N.3   102  HIS102     -0.1241
     37  CA        15.0950    8.5630   17.7780 C.3   102  HIS102      0.1621
     38  C         15.9940    7.6450   16.9550 C.2   102  HIS102      0.2264
     39  O         15.5700    6.5770   16.5390 O.2   102  HIS102     -0.2867
     40  CB        15.2460    8.2760   19.2780 C.3   102  HIS102      0.0745
     41  CG        14.5260    9.2570   20.1470 C.ar  102  HIS102      0.0817
     42  ND1       13.1830    9.1510   20.4360 N.ar  102  HIS102     -0.2268
     43  CD2       14.9450   10.4060   20.7290 C.ar  102  HIS102      0.1154
     44  CE1       12.8050   10.1920   21.1560 C.ar  102  HIS102      0.1986
     45  NE2       13.8550   10.9690   21.3470 N.ar  102  HIS102     -0.2212
     46  N         18.7970    8.6330   22.2760 N.3   116  GLY116     -0.1210
     47  CA        17.4600    9.0320   22.6810 C.3   116  GLY116      0.1940
     48  C         17.6440    9.2470   24.1700 C.2   116  GLY116      0.2454
     49  O         17.3620   10.3220   24.6900 O.2   116  GLY116     -0.2732
     50  N         18.1060    8.2160   24.8940 N.am  117  PRO117     -0.2717
     51  CA        18.3280    8.3660   26.3350 C.3   117  PRO117      0.1535
     52  C         19.5450    9.2880   26.4340 C.2   117  PRO117      0.2598
     53  O         20.6430    8.9090   26.0320 O.2   117  PRO117     -0.2715
     54  CB        18.6380    6.9410   26.7830 C.3   117  PRO117      0.0310
     55  CG        17.8310    6.1190   25.8320 C.3   117  PRO117      0.0237
     56  CD        18.1070    6.7950   24.5130 C.3   117  PRO117      0.0939
     57  N         19.3450   10.4920   26.9590 N.am  118  LEU118     -0.1978
     58  CA        20.4110   11.4860   27.0480 C.3   118  LEU118      0.1596
     59  C         21.7120   11.0450   27.7210 C.2   118  LEU118      0.2287
     60  O         21.7110   10.2680   28.6740 O.2   118  LEU118     -0.2864
     61  CB        19.8660   12.7530   27.7200 C.3   118  LEU118      0.0297
     62  CG        18.7000   13.3930   26.9520 C.3   118  LEU118      0.0022
     63  CD1       18.0110   14.4530   27.8000 C.3   118  LEU118      0.0001
     64  CD2       19.2140   13.9910   25.6530 C.3   118  LEU118      0.0001
     65  N         23.4630   18.3610   23.6220 N.3   156  GLY156     -0.1210
     66  CA        22.7870   19.5490   24.0980 C.3   156  GLY156      0.1956
     67  C         22.9120   19.7170   25.5990 C.2   156  GLY156      0.2612
     68  O         23.6870   19.0220   26.2500 O.2   156  GLY156     -0.2717
     69  N         22.1430   20.6410   26.1580 N.am  157  ASP157     -0.1959
     70  CA        22.2010   20.8860   27.5900 C.3   157  ASP157      0.1840
     71  C         21.8160   19.6330   28.3710 C.2   157  ASP157      0.2623
     72  O         22.4530   19.2930   29.3730 O.2   157  ASP157     -0.2715
     73  CB        21.2910   22.0640   27.9560 C.3   157  ASP157      0.1450
     74  CG        21.7650   23.3790   27.3480 C.2   157  ASP157      0.3671
     75  OD1       22.8720   23.8450   27.6870 O.co2 157  ASP157     -0.2456
     76  OD2       21.0350   23.9550   26.5230 O.co2 157  ASP157     -0.2456
     77  N         20.7840   18.9420   27.8960 N.am  158  GLY158     -0.1940
     78  CA        20.3330   17.7330   28.5590 C.3   158  GLY158      0.2014
     79  C         21.4640   16.7440   28.7370 C.2   158  GLY158      0.2639
     80  O         21.6660   16.1960   29.8220 O.2   158  GLY158     -0.2714
     81  N         22.2170   16.5190   27.6680 N.am  159  CYS159     -0.1967
     82  CA        23.3350   15.5840   27.7110 C.3   159  CYS159      0.1712
     83  C         24.3440   15.9400   28.8150 C.2   159  CYS159      0.2296
     84  O         24.7030   15.0880   29.6300 O.2   159  CYS159     -0.2864
     85  CB        24.0400   15.5440   26.3440 C.3   159  CYS159      0.0983
     86  SG        23.0150   14.9580   24.9380 S.3   159  CYS159     -0.0798
     87  N         23.5160   15.0320   32.4990 N.3   162  GLU162     -0.1245
     88  CA        23.5260   13.6220   32.8690 C.3   162  GLU162      0.1567
     89  C         24.8710   13.1290   33.3610 C.2   162  GLU162      0.2260
     90  O         25.9100   13.4210   32.7700 O.2   162  GLU162     -0.2867
     91  CB        23.0820   12.7530   31.6870 C.3   162  GLU162      0.0388
     92  CG        21.6000   12.8250   31.3680 C.3   162  GLU162      0.1160
     93  CD        20.7330   12.1090   32.3950 C.2   162  GLU162      0.3649
     94  OE1       21.2770   11.6000   33.4080 O.co2 162  GLU162     -0.2457
     95  OE2       19.4990   12.0590   32.1830 O.co2 162  GLU162     -0.2457
     96  N         25.7480   22.1870   21.6280 N.3   185  ASP185     -0.1239
     97  CA        24.7630   23.1530   21.1920 C.3   185  ASP185      0.1674
     98  C         24.1500   23.8210   22.4100 C.2   185  ASP185      0.2266
     99  O         23.2180   23.2940   23.0160 O.2   185  ASP185     -0.2867
    100  CB        23.6890   22.4440   20.3670 C.3   185  ASP185      0.1410
    101  CG        22.6620   23.3950   19.8120 C.2   185  ASP185      0.3668
    102  OD1       23.0560   24.4040   19.1880 O.co2 185  ASP185     -0.2456
    103  OD2       21.4580   23.1270   19.9890 O.co2 185  ASP185     -0.2456
    104  N         21.9040   26.5160   23.7550 N.3   187  ASN187     -0.1240
    105  CA        20.8580   27.4590   23.3670 C.3   187  ASN187      0.1653
    106  C         19.9790   27.8900   24.5430 C.2   187  ASN187      0.2266
    107  O         18.8900   28.4290   24.3480 O.2   187  ASN187     -0.2867
    108  CB        19.9880   26.8590   22.2510 C.3   187  ASN187      0.1155
    109  CG        19.3990   25.5210   22.6320 C.2   187  ASN187      0.2627
    110  OD1       19.2900   25.2120   23.8100 O.2   187  ASN187     -0.2716
    111  ND2       19.0080   24.7260   21.6430 N.am  187  ASN187     -0.0877
    112  N         17.9380   26.4510   26.5640 N.3   189  ILE189     -0.1231
    113  CA        16.5600   25.9850   26.6270 C.3   189  ILE189      0.1692
    114  C         16.4740   24.4850   26.8570 C.2   189  ILE189      0.2593
    115  O         17.2880   23.7350   26.3540 O.2   189  ILE189     -0.2718
    116  CB        15.8070   26.3100   25.3040 C.3   189  ILE189      0.0266
    117  CG1       15.5700   27.8170   25.1920 C.3   189  ILE189      0.0019
    118  CG2       14.4810   25.5460   25.2450 C.3   189  ILE189      0.0020
    119  CD1       14.5400   28.3520   26.1800 C.3   189  ILE189      0.0001
    120  N         15.4870   24.0530   27.6300 N.am  190  SER190     -0.1938
    121  CA        15.2720   22.6320   27.8640 C.3   190  SER190      0.2055
    122  C         13.7570   22.5090   27.9360 C.2   190  SER190      0.2642
    123  O         13.0560   23.5050   27.7490 O.2   190  SER190     -0.2714
    124  CB        15.9450   22.1650   29.1650 C.3   190  SER190      0.2130
    125  OG        15.3040   22.6750   30.3200 O.3   190  SER190     -0.2179
    126  N         13.2430   21.3130   28.1930 N.am  191  ILE191     -0.1977
    127  CA        11.7980   21.1310   28.2600 C.3   191  ILE191      0.1596
    128  C         11.0870   22.0590   29.2510 C.2   191  ILE191      0.2287
    129  O         10.0840   22.6860   28.9070 O.2   191  ILE191     -0.2864
    130  CB        11.4410   19.6740   28.5990 C.3   191  ILE191      0.0276
    131  CG1       11.9500   18.7550   27.4830 C.3   191  ILE191      0.0022
    132  CG2        9.9310   19.5360   28.7820 C.3   191  ILE191      0.0022
    133  CD1       11.5120   17.3110   27.6210 C.3   191  ILE191      0.0001
    134  N         17.4060   28.1110   19.6090 N.3   250  ILE250     -0.1245
    135  CA        16.5930   26.9420   19.3110 C.3   250  ILE250      0.1561
    136  C         15.4520   27.3510   18.3770 C.2   250  ILE250      0.2260
    137  O         14.7780   28.3530   18.6080 O.2   250  ILE250     -0.2867
    138  CB        16.0250   26.3090   20.6030 C.3   250  ILE250      0.0252
    139  CG1       15.4030   24.9510   20.2830 C.3   250  ILE250      0.0019
    140  CG2       14.9940   27.2230   21.2300 C.3   250  ILE250      0.0019
    141  CD1       14.8640   24.2350   21.5000 C.3   250  ILE250      0.0001
    142  N         10.6810   23.0810   21.2260 N.3   263  HIS263     -0.1241
    143  CA        11.4680   21.9270   21.6210 C.3   263  HIS263      0.1621
    144  C         10.9450   20.5930   21.0960 C.2   263  HIS263      0.2264
    145  O         11.6540   19.8810   20.3830 O.2   263  HIS263     -0.2867
    146  CB        11.5710   21.8270   23.1400 C.3   263  HIS263      0.0745
    147  CG        12.0420   20.4860   23.6040 C.ar  263  HIS263      0.0817
    148  ND1       13.3600   20.0900   23.5110 N.ar  263  HIS263     -0.2268
    149  CD2       11.3560   19.4080   24.0530 C.ar  263  HIS263      0.1154
    150  CE1       13.4630   18.8260   23.8790 C.ar  263  HIS263      0.1986
    151  NE2       12.2610   18.3880   24.2120 N.ar  263  HIS263     -0.2212
@<TRIPOS>BOND
     1    14    13    2
     2     4     3    2
     3    13    12    1
     4    39    38    2
     5     3     2    1
     6    38    37    1
     7     1     2    1
     8    36    37    1
     9    37    40    1
    10     2     5    1
    11    12    11    1
    12    12    15    1
    13    29    28    2
    14   136   137    2
    15   136   135    1
    16    17    15    1
    17    28    27    1
    18     5     6    1
    19    15    16    1
    20   102   101   ar
    21    40    41    1
    22   135   134    1
    23   135   138    1
    24    25    23   am
    25     7     6   ar
    26     7     9   ar
    27    21    20    2
    28   101   103   ar
    29   101   100    1
    30     6     8   ar
    31    27    26    1
    32    27    30    1
    33    24    23    2
    34    41    42   ar
    35    41    43   ar
    36   139   138    1
    37   139   141    1
    38    23    22    1
    39   100    97    1
    40   145   144    2
    41    42    44   ar
    42    20    19    1
    43   138   140    1
    44     9    10   ar
    45    43    45   ar
    46   144   143    1
    47    30    31    1
    48    44    45   ar
    49    97    96    1
    50    97    98    1
    51     8    10   ar
    52    18    19    1
    53   142   143    1
    54    22    19    1
    55    33    31   ar
    56    33    35   ar
    57    31    32   ar
    58   143   146    1
    59   111   109   am
    60    35    34   ar
    61    32    34   ar
    62   108   109    1
    63   108   105    1
    64    46    47    1
    65    98    99    2
    66   109   110    2
    67    47    48    1
    68   146   147    1
    69   105   104    1
    70   105   106    1
    71   148   147   ar
    72   148   150   ar
    73   147   149   ar
    74    65    66    1
    75   150   151   ar
    76   149   151   ar
    77    66    67    1
    78    48    49    2
    79    48    50   am
    80   107   106    2
    81    56    50    1
    82    56    55    1
    83    50    51    1
    84    86    85    1
    85   117   116    1
    86   117   119    1
    87   118   116    1
    88   116   113    1
    89    67    69   am
    90    67    68    2
    91    64    62    1
    92    55    54    1
    93    53    52    2
    94    69    70    1
    95    51    52    1
    96    51    54    1
    97    85    82    1
    98   115   114    2
    99    52    57   am
   100    76    74   ar
   101   112   113    1
   102   113   114    1
   103   114   120   am
   104    62    61    1
   105    62    63    1
   106    57    58    1
   107    58    61    1
   108    58    59    1
   109    74    75   ar
   110    74    73    1
   111   131   133    1
   112   131   130    1
   113    70    73    1
   114    70    71    1
   115   120   121    1
   116    81    82    1
   117    81    79   am
   118    82    83    1
   119    59    60    2
   120   123   122    2
   121   121   122    1
   122   121   124    1
   123    77    71   am
   124    77    78    1
   125   122   126   am
   126   126   127    1
   127   127   130    1
   128   127   128    1
   129    71    72    2
   130    78    79    1
   131   130   132    1
   132    79    80    2
   133    83    84    2
   134   129   128    2
   135   124   125    1
   136    92    91    1
   137    92    93    1
   138    91    88    1
   139    95    93   ar
   140    93    94   ar
   141    87    88    1
   142    90    89    2
   143    88    89    1
