@<TRIPOS>MOLECULE
tmp/1r9lA00.pdb
 111 112 0 0 0
SMALL
GASTEIGER

@<TRIPOS>ATOM
      1  N         28.2750   31.2350   70.1480 N.3    17  ILE17      -0.1245
      2  CA        29.4520   30.4050   70.0090 C.3    17  ILE17       0.1561
      3  C         29.9880   30.6170   68.6060 C.2    17  ILE17       0.2260
      4  O         29.3770   30.1660   67.6610 O.2    17  ILE17      -0.2867
      5  CB        29.0730   28.9320   70.2160 C.3    17  ILE17       0.0252
      6  CG1       28.6340   28.6520   71.6600 C.3    17  ILE17       0.0019
      7  CG2       30.2440   28.0170   69.8540 C.3    17  ILE17       0.0019
      8  CD1       28.1280   27.2400   71.8580 C.3    17  ILE17       0.0001
      9  N         30.5260   28.0320   65.8520 N.3    20  GLU20      -0.1245
     10  CA        29.4020   27.6440   64.9860 C.3    20  GLU20       0.1567
     11  C         29.3130   28.4280   63.6810 C.2    20  GLU20       0.2260
     12  O         28.5460   28.0570   62.7900 O.2    20  GLU20      -0.2867
     13  CB        28.0710   27.8000   65.7330 C.3    20  GLU20       0.0388
     14  CG        27.9220   26.8660   66.8920 C.3    20  GLU20       0.1160
     15  CD        26.6100   26.9920   67.6300 C.2    20  GLU20       0.3649
     16  OE1       25.9790   28.0760   67.5730 O.co2  20  GLU20      -0.2457
     17  OE2       26.2320   26.0270   68.3140 O.co2  20  GLU20      -0.2457
     18  N         19.7850   29.8760   72.2340 N.3    46  TYR46      -0.1241
     19  CA        19.2870   28.7620   71.4360 C.3    46  TYR46       0.1605
     20  C         17.7810   28.7370   71.3970 C.2    46  TYR46       0.2264
     21  O         17.2010   28.5670   70.3390 O.2    46  TYR46      -0.2867
     22  CB        19.7930   27.4180   71.9310 C.3    46  TYR46       0.0534
     23  CG        21.2100   27.0550   71.5500 C.ar   46  TYR46      -0.0201
     24  CD1       22.1360   26.7500   72.5300 C.ar   46  TYR46      -0.0009
     25  CD2       21.6170   26.9940   70.2180 C.ar   46  TYR46      -0.0009
     26  CE1       23.4180   26.3810   72.2100 C.ar   46  TYR46       0.0417
     27  CE2       22.8980   26.6330   69.8960 C.ar   46  TYR46       0.0417
     28  CZ        23.7840   26.3300   70.8960 C.ar   46  TYR46       0.1957
     29  OH        25.0580   25.9410   70.6140 O.3    46  TYR46      -0.2866
     30  N         21.2010   20.4280   67.5700 N.3    65  TRP65      -0.1241
     31  CA        21.8740   19.2720   68.1840 C.3    65  TRP65       0.1605
     32  C         20.8880   18.1760   68.5730 C.2    65  TRP65       0.2264
     33  O         19.8500   18.4530   69.1300 O.2    65  TRP65      -0.2867
     34  CB        22.5980   19.6930   69.4560 C.3    65  TRP65       0.0550
     35  CG        23.9490   20.2520   69.2530 C.ar   65  TRP65       0.0003
     36  CD1       24.2850   21.5310   68.8840 C.ar   65  TRP65       0.0946
     37  CD2       25.1780   19.5630   69.4660 C.ar   65  TRP65       0.0152
     38  NE1       25.6500   21.6550   68.8190 N.ar   65  TRP65      -0.2442
     39  CE2       26.2150   20.4510   69.1560 C.ar   65  TRP65       0.0810
     40  CE3       25.5050   18.2440   69.8250 C.ar   65  TRP65       0.0012
     41  CZ2       27.5440   20.0960   69.2450 C.ar   65  TRP65       0.0191
     42  CZ3       26.8130   17.8990   69.9230 C.ar   65  TRP65       0.0001
     43  CH2       27.8290   18.8190   69.6120 C.ar   65  TRP65       0.0015
     44  N         20.8280   17.0570   72.3980 N.3    68  LEU68      -0.1231
     45  CA        20.8130   18.1850   73.3130 C.3    68  LEU68       0.1693
     46  C         19.6890   19.1580   73.1070 C.2    68  LEU68       0.2592
     47  O         19.2550   19.7760   74.0650 O.2    68  LEU68      -0.2718
     48  CB        22.1250   18.9410   73.2510 C.3    68  LEU68       0.0284
     49  CG        23.3640   18.2240   73.7580 C.3    68  LEU68       0.0019
     50  CD1       24.5550   19.0590   73.4800 C.3    68  LEU68       0.0001
     51  CD2       23.2790   17.9510   75.2250 C.3    68  LEU68       0.0001
     52  N         19.2450   19.3500   71.8720 N.am   69  HIS69      -0.1976
     53  CA        18.1650   20.3090   71.5870 C.3    69  HIS69       0.1656
     54  C         16.7990   19.6410   71.3880 C.2    69  HIS69       0.2291
     55  O         15.8560   20.3280   71.0630 O.2    69  HIS69      -0.2864
     56  CB        18.4910   21.1430   70.3360 C.3    69  HIS69       0.0771
     57  CG        19.6690   22.0520   70.4930 C.ar   69  HIS69       0.0820
     58  ND1       20.1120   22.8710   69.4860 N.ar   69  HIS69      -0.2267
     59  CD2       20.4930   22.2650   71.5390 C.ar   69  HIS69       0.1154
     60  CE1       21.1490   23.5710   69.9110 C.ar   69  HIS69       0.1986
     61  NE2       21.4190   23.1930   71.1440 N.ar   69  HIS69      -0.2212
     62  N         22.1030   26.5240   77.2540 N.3   140  TRP140     -0.1227
     63  CA        22.6430   25.4770   76.4010 C.3   140  TRP140      0.1737
     64  C         21.9070   24.1800   76.7140 C.2   140  TRP140      0.2596
     65  O         21.5470   23.9320   77.8570 O.2   140  TRP140     -0.2718
     66  CB        24.1330   25.2870   76.6760 C.3   140  TRP140      0.0564
     67  CG        25.0000   26.3700   76.0820 C.ar  140  TRP140      0.0003
     68  CD1       24.5740   27.5130   75.4390 C.ar  140  TRP140      0.0946
     69  CD2       26.4280   26.4600   76.1290 C.ar  140  TRP140      0.0152
     70  NE1       25.6450   28.2690   75.0480 N.ar  140  TRP140     -0.2442
     71  CE2       26.8030   27.6370   75.4500 C.ar  140  TRP140      0.0810
     72  CE3       27.4400   25.6350   76.6330 C.ar  140  TRP140      0.0012
     73  CZ2       28.1280   28.0120   75.2960 C.ar  140  TRP140      0.0191
     74  CZ3       28.7620   26.0090   76.4540 C.ar  140  TRP140      0.0001
     75  CH2       29.0930   27.1850   75.7980 C.ar  140  TRP140      0.0015
     76  N         21.6920   23.3330   75.7020 N.am  141  GLY141     -0.1942
     77  CA        21.0620   22.0330   75.9420 C.3   141  GLY141      0.2014
     78  C         21.8500   21.1850   76.9100 C.2   141  GLY141      0.2639
     79  O         21.2690   20.4240   77.7130 O.2   141  GLY141     -0.2714
     80  N         23.1700   21.3560   76.9210 N.am  142  CYS142     -0.1967
     81  CA        23.9910   20.5670   77.8280 C.3   142  CYS142      0.1712
     82  C         23.8060   20.9560   79.2860 C.2   142  CYS142      0.2296
     83  O         24.0970   20.1730   80.1860 O.2   142  CYS142     -0.2864
     84  CB        25.4650   20.5360   77.4100 C.3   142  CYS142      0.0983
     85  SG        26.3080   22.1260   77.2630 S.3   142  CYS142     -0.0798
     86  N         33.0020   19.0660   81.4020 N.3   186  TYR186     -0.1241
     87  CA        32.2130   18.5490   80.2910 C.3   186  TYR186      0.1605
     88  C         32.7400   19.2480   79.0650 C.2   186  TYR186      0.2264
     89  O         33.1470   20.3910   79.1300 O.2   186  TYR186     -0.2867
     90  CB        30.7390   18.8990   80.5000 C.3   186  TYR186      0.0534
     91  CG        29.8990   18.8200   79.2490 C.ar  186  TYR186     -0.0201
     92  CD1       29.2420   17.6680   78.9230 C.ar  186  TYR186     -0.0009
     93  CD2       29.7790   19.9050   78.4000 C.ar  186  TYR186     -0.0009
     94  CE1       28.4650   17.5790   77.7660 C.ar  186  TYR186      0.0417
     95  CE2       29.0220   19.8210   77.2590 C.ar  186  TYR186      0.0417
     96  CZ        28.3730   18.6710   76.9690 C.ar  186  TYR186      0.1957
     97  OH        27.6080   18.5900   75.8130 O.3   186  TYR186     -0.2866
     98  N         32.3720   18.8950   74.3530 N.3   188  TRP188     -0.1241
     99  CA        31.8130   18.2720   73.1760 C.3   188  TRP188      0.1605
    100  C         32.7950   18.4140   72.0380 C.2   188  TRP188      0.2264
    101  O         33.6820   19.2740   72.0580 O.2   188  TRP188     -0.2867
    102  CB        30.4990   18.9170   72.7800 C.3   188  TRP188      0.0550
    103  CG        30.6180   20.3600   72.3650 C.ar  188  TRP188      0.0003
    104  CD1       30.6280   20.8400   71.0980 C.ar  188  TRP188      0.0946
    105  CD2       30.6930   21.5100   73.2260 C.ar  188  TRP188      0.0152
    106  NE1       30.7530   22.2050   71.1150 N.ar  188  TRP188     -0.2442
    107  CE2       30.8030   22.6390   72.4050 C.ar  188  TRP188      0.0810
    108  CE3       30.7100   21.6910   74.6050 C.ar  188  TRP188      0.0012
    109  CZ2       30.8700   23.9300   72.9150 C.ar  188  TRP188      0.0191
    110  CZ3       30.7770   22.9650   75.1100 C.ar  188  TRP188      0.0001
    111  CH2       30.8800   24.0650   74.2700 C.ar  188  TRP188      0.0015
@<TRIPOS>BOND
     1    12    11    2
     2    11    10    1
     3    10    13    1
     4    10     9    1
     5    13    14    1
     6    14    15    1
     7    30    31    1
     8    16    15   ar
     9    15    17   ar
    10     4     3    2
    11    31    32    1
    12    31    34    1
    13    32    33    2
    14     3     2    1
    15    38    36   ar
    16    38    39   ar
    17    36    35   ar
    18    39    41   ar
    19    39    37   ar
    20    41    43   ar
    21    35    34    1
    22    35    37   ar
    23    37    40   ar
    24    58    60   ar
    25    58    57   ar
    26    43    42   ar
    27    40    42   ar
    28     7     5    1
    29    27    25   ar
    30    27    28   ar
    31    60    61   ar
    32     2     1    1
    33     2     5    1
    34     5     6    1
    35    25    23   ar
    36    56    57    1
    37    56    53    1
    38    21    20    2
    39    57    59   ar
    40    29    28    1
    41    28    26   ar
    42    55    54    2
    43   104   106   ar
    44   104   103   ar
    45   106   107   ar
    46    61    59   ar
    47    54    53    1
    48    20    19    1
    49    19    22    1
    50    19    18    1
    51    23    22    1
    52    23    24   ar
    53    53    52    1
    54     6     8    1
    55    52    46   am
    56   100   101    2
    57   100    99    1
    58    26    24   ar
    59   103   102    1
    60   103   105   ar
    61    44    45    1
    62   107   109   ar
    63   107   105   ar
    64   102    99    1
    65   109   111   ar
    66    46    45    1
    67    46    47    2
    68    99    98    1
    69   105   108   ar
    70    48    45    1
    71    48    49    1
    72    50    49    1
    73    49    51    1
    74   111   110   ar
    75   108   110   ar
    76    70    68   ar
    77    70    71   ar
    78    73    71   ar
    79    73    75   ar
    80    68    67   ar
    81    71    69   ar
    82    76    77    1
    83    76    64   am
    84    75    74   ar
    85    97    96    1
    86    77    78    1
    87    67    69   ar
    88    67    66    1
    89    69    72   ar
    90    63    66    1
    91    63    64    1
    92    63    62    1
    93    74    72   ar
    94    64    65    2
    95    78    80   am
    96    78    79    2
    97    80    81    1
    98    96    95   ar
    99    96    94   ar
   100    95    93   ar
   101    85    84    1
   102    84    81    1
   103    94    92   ar
   104    81    82    1
   105    93    91   ar
   106    92    91   ar
   107    88    89    2
   108    88    87    1
   109    91    90    1
   110    82    83    2
   111    87    90    1
   112    87    86    1
