@<TRIPOS>MOLECULE
tmp/1r9nC00.pdb
 214 211 0 0 0
SMALL
GASTEIGER

@<TRIPOS>ATOM
      1  N         59.5150    6.1690   -2.9420 N.3    13  TYR13      -0.1241
      2  CA        59.6130    6.1920   -1.4880 C.3    13  TYR13       0.1605
      3  C         59.0030    4.9480   -0.8320 C.2    13  TYR13       0.2264
      4  O         59.6110    4.3480    0.0500 O.2    13  TYR13      -0.2867
      5  CB        59.0210    7.4940   -0.9130 C.3    13  TYR13       0.0534
      6  CG        58.9910    7.5440    0.6090 C.ar   13  TYR13      -0.0201
      7  CD1       60.1390    7.2790    1.3730 C.ar   13  TYR13      -0.0009
      8  CD2       57.8070    7.8590    1.2870 C.ar   13  TYR13      -0.0009
      9  CE1       60.0920    7.3180    2.7720 C.ar   13  TYR13       0.0417
     10  CE2       57.7580    7.8980    2.6650 C.ar   13  TYR13       0.0417
     11  CZ        58.8940    7.6240    3.3960 C.ar   13  TYR13       0.1957
     12  OH        58.8140    7.6660    4.7620 O.3    13  TYR13      -0.2866
     13  N         58.0670   -8.1270   19.3570 N.3    87  LYS87      -0.1245
     14  CA        58.2900   -6.7350   19.7990 C.3    87  LYS87       0.1561
     15  C         57.3490   -6.3210   20.9170 C.2    87  LYS87       0.2260
     16  O         56.1810   -6.6870   20.8970 O.2    87  LYS87      -0.2867
     17  CB        58.1050   -5.7740   18.6160 C.3    87  LYS87       0.0271
     18  CG        58.4740   -4.3540   18.9350 C.3    87  LYS87       0.0035
     19  CD        58.1250   -3.4030   17.8260 C.3    87  LYS87       0.0206
     20  CE        58.3370   -1.9740   18.2830 C.3    87  LYS87       0.1093
     21  NZ        57.2800   -1.5450   19.2370 N.3    87  LYS87      -0.1314
     22  N         59.6300    0.2930   22.4540 N.3    90  ARG90      -0.1245
     23  CA        60.6390    0.7810   21.5120 C.3    90  ARG90       0.1563
     24  C         61.8730   -0.1130   21.5560 C.2    90  ARG90       0.2260
     25  O         62.4960   -0.3670   20.5220 O.2    90  ARG90      -0.2867
     26  CB        61.0200    2.2400   21.7840 C.3    90  ARG90       0.0307
     27  CG        61.8000    2.8670   20.6470 C.3    90  ARG90       0.0489
     28  CD        62.5000    4.1580   21.0270 C.3    90  ARG90       0.2205
     29  NE        61.5670    5.1940   21.4590 N.pl3  90  ARG90      -0.0865
     30  CZ        61.0040    6.1080   20.6610 C.cat  90  ARG90       0.5346
     31  NH1       61.2620    6.1150   19.3570 N.pl3  90  ARG90       0.1354
     32  NH2       60.1630    7.0180   21.1760 N.pl3  90  ARG90       0.1354
     33  N         61.8740    3.8080   28.1440 N.3   170  GLU170     -0.1231
     34  CA        61.7230    4.8180   27.1000 C.3   170  GLU170      0.1699
     35  C         62.4820    6.1350   27.3500 C.2   170  GLU170      0.2592
     36  O         63.0670    6.7160   26.4140 O.2   170  GLU170     -0.2718
     37  CB        60.2240    5.0730   26.8610 C.3   170  GLU170      0.0402
     38  CG        59.8750    6.2900   25.9920 C.3   170  GLU170      0.1161
     39  CD        60.1960    6.0740   24.5280 C.2   170  GLU170      0.3649
     40  OE1       60.3500    4.9040   24.1120 O.co2 170  GLU170     -0.2457
     41  OE2       60.2780    7.0750   23.7910 O.co2 170  GLU170     -0.2457
     42  N         62.4590    6.6090   28.5950 N.am  171  GLU171     -0.1979
     43  CA        62.9290    7.9640   28.9170 C.3   171  GLU171      0.1602
     44  C         64.2510    8.0030   29.6800 C.2   171  GLU171      0.2287
     45  O         64.9680    9.0100   29.6410 O.2   171  GLU171     -0.2864
     46  CB        61.8750    8.7340   29.7460 C.3   171  GLU171      0.0415
     47  CG        60.4470    8.7830   29.1800 C.3   171  GLU171      0.1163
     48  CD        60.3450    9.5540   27.8820 C.2   171  GLU171      0.3649
     49  OE1       61.3870   10.0320   27.3910 O.co2 171  GLU171     -0.2457
     50  OE2       59.2180    9.6880   27.3420 O.co2 171  GLU171     -0.2457
     51  N         69.3300   15.1690   27.7310 N.3   322  PHE322     -0.1241
     52  CA        68.1230   14.4350   28.0930 C.3   322  PHE322      0.1605
     53  C         68.2800   13.7800   29.4550 C.2   322  PHE322      0.2264
     54  O         67.2930   13.4430   30.1110 O.2   322  PHE322     -0.2867
     55  CB        67.8260   13.3530   27.0560 C.3   322  PHE322      0.0534
     56  CG        67.4560   13.8930   25.7200 C.ar  322  PHE322     -0.0203
     57  CD1       66.1290   14.1870   25.4250 C.ar  322  PHE322     -0.0042
     58  CD2       68.4330   14.1240   24.7510 C.ar  322  PHE322     -0.0042
     59  CE1       65.7700   14.7070   24.1760 C.ar  322  PHE322     -0.0003
     60  CE2       68.0870   14.6480   23.4940 C.ar  322  PHE322     -0.0003
     61  CZ        66.7490   14.9340   23.2070 C.ar  322  PHE322     -0.0000
     62  N         59.7440   19.5000   14.0790 N.3   512  TYR512     -0.1241
     63  CA        59.7620   18.7420   15.3290 C.3   512  TYR512      0.1605
     64  C         59.7460   19.7050   16.5410 C.2   512  TYR512      0.2264
     65  O         58.7380   19.8290   17.2450 O.2   512  TYR512     -0.2867
     66  CB        60.9180   17.7230   15.3670 C.3   512  TYR512      0.0534
     67  CG        60.8310   16.8350   16.5720 C.ar  512  TYR512     -0.0201
     68  CD1       61.6230   17.0770   17.6970 C.ar  512  TYR512     -0.0009
     69  CD2       59.9250   15.7720   16.6160 C.ar  512  TYR512     -0.0009
     70  CE1       61.5260   16.2730   18.8320 C.ar  512  TYR512      0.0417
     71  CE2       59.8290   14.9680   17.7380 C.ar  512  TYR512      0.0417
     72  CZ        60.6260   15.2310   18.8450 C.ar  512  TYR512      0.1957
     73  OH        60.5220   14.4370   19.9590 O.3   512  TYR512     -0.2866
     74  N         55.2440   15.0030   13.6270 N.3   594  TRP594     -0.1227
     75  CA        54.8920   13.7560   14.2580 C.3   594  TRP594      0.1737
     76  C         55.2420   13.9140   15.7360 C.2   594  TRP594      0.2596
     77  O         56.3410   14.3470   16.0790 O.2   594  TRP594     -0.2718
     78  CB        55.7190   12.6340   13.6080 C.3   594  TRP594      0.0564
     79  CG        55.1970   11.2450   13.7340 C.ar  594  TRP594      0.0003
     80  CD1       54.9650   10.5630   14.8850 C.ar  594  TRP594      0.0946
     81  CD2       54.9120   10.3290   12.6550 C.ar  594  TRP594      0.0152
     82  NE1       54.5180    9.2970   14.5990 N.ar  594  TRP594     -0.2442
     83  CE2       54.4810    9.1240   13.2390 C.ar  594  TRP594      0.0810
     84  CE3       54.9770   10.4180   11.2470 C.ar  594  TRP594      0.0012
     85  CZ2       54.1010    8.0050   12.4750 C.ar  594  TRP594      0.0191
     86  CZ3       54.5960    9.3120   10.4900 C.ar  594  TRP594      0.0001
     87  CH2       54.1730    8.1100   11.1150 C.ar  594  TRP594      0.0015
     88  N         54.2940   13.5820   16.6070 N.am  595  SER595     -0.1938
     89  CA        54.5560   13.5030   18.0470 C.3   595  SER595      0.2055
     90  C         54.7840   14.9000   18.6630 C.2   595  SER595      0.2643
     91  O         53.8440   15.6990   18.6620 O.2   595  SER595     -0.2714
     92  CB        55.7040   12.5270   18.3000 C.3   595  SER595      0.2130
     93  OG        55.7890   12.1880   19.6790 O.3   595  SER595     -0.2179
     94  N         55.9880   15.2210   19.1670 N.am  596  TYR596     -0.1973
     95  CA        56.2750   16.6040   19.5790 C.3   596  TYR596      0.1639
     96  C         56.0020   17.5000   18.3760 C.2   596  TYR596      0.2290
     97  O         55.4630   18.5870   18.5240 O.2   596  TYR596     -0.2864
     98  CB        57.7130   16.8230   20.1080 C.3   596  TYR596      0.0560
     99  CG        57.8280   18.0620   21.0010 C.ar  596  TYR596     -0.0198
    100  CD1       57.9720   17.9510   22.3810 C.ar  596  TYR596     -0.0009
    101  CD2       57.7450   19.3430   20.4630 C.ar  596  TYR596     -0.0009
    102  CE1       58.0450   19.0900   23.1970 C.ar  596  TYR596      0.0417
    103  CE2       57.8090   20.4810   21.2670 C.ar  596  TYR596      0.0417
    104  CZ        57.9550   20.3400   22.6300 C.ar  596  TYR596      0.1957
    105  OH        58.0140   21.4730   23.4150 O.3   596  TYR596     -0.2866
    106  N         51.1160   15.0390   20.8910 N.3   621  VAL621     -0.1245
    107  CA        50.8070   15.4320   22.2620 C.3   621  VAL621      0.1561
    108  C         49.7590   16.5500   22.1740 C.2   621  VAL621      0.2260
    109  O         49.8400   17.4110   21.2760 O.2   621  VAL621     -0.2867
    110  CB        52.0780   15.9330   23.0080 C.3   621  VAL621      0.0252
    111  CG1       51.7280   16.5930   24.3370 C.3   621  VAL621      0.0019
    112  CG2       53.0710   14.8000   23.2310 C.3   621  VAL621      0.0019
    113  N         50.2410   18.2270   28.2900 N.3   624  TRP624     -0.1241
    114  CA        51.4120   17.6180   28.9220 C.3   624  TRP624      0.1605
    115  C         51.1350   16.7300   30.1200 C.2   624  TRP624      0.2264
    116  O         51.9850   15.9180   30.4970 O.2   624  TRP624     -0.2867
    117  CB        52.4530   18.6970   29.2500 C.3   624  TRP624      0.0550
    118  CG        53.0870   19.1820   27.9980 C.ar  624  TRP624      0.0003
    119  CD1       52.9370   20.4030   27.4230 C.ar  624  TRP624      0.0946
    120  CD2       53.9090   18.4110   27.1100 C.ar  624  TRP624      0.0152
    121  NE1       53.6380   20.4590   26.2380 N.ar  624  TRP624     -0.2442
    122  CE2       54.2510   19.2530   26.0260 C.ar  624  TRP624      0.0810
    123  CE3       54.4180   17.1050   27.1440 C.ar  624  TRP624      0.0012
    124  CZ2       55.0690   18.8230   24.9730 C.ar  624  TRP624      0.0191
    125  CZ3       55.2320   16.6800   26.1010 C.ar  624  TRP624      0.0001
    126  CH2       55.5440   17.5320   25.0290 C.ar  624  TRP624      0.0015
    127  N         51.1980   13.1090   29.1110 N.3   627  TYR627     -0.1241
    128  CA        52.4800   12.4620   28.8240 C.3   627  TYR627      0.1605
    129  C         53.1760   11.9310   30.0980 C.2   627  TYR627      0.2264
    130  O         52.7540   12.2310   31.2200 O.2   627  TYR627     -0.2867
    131  CB        53.3860   13.3450   27.9380 C.3   627  TYR627      0.0534
    132  CG        54.4100   12.5310   27.1760 C.ar  627  TYR627     -0.0201
    133  CD1       54.0130   11.4820   26.3620 C.ar  627  TYR627     -0.0009
    134  CD2       55.7770   12.7940   27.2910 C.ar  627  TYR627     -0.0009
    135  CE1       54.9410   10.7080   25.6900 C.ar  627  TYR627      0.0417
    136  CE2       56.7140   12.0430   26.6040 C.ar  627  TYR627      0.0417
    137  CZ        56.2870   10.9910   25.8080 C.ar  627  TYR627      0.1957
    138  OH        57.1920   10.2050   25.1240 O.3   627  TYR627     -0.2866
    139  N         59.9010   12.5020   31.1470 N.3   631  TYR631     -0.1241
    140  CA        60.0680   13.4590   30.0590 C.3   631  TYR631      0.1605
    141  C         59.4430   14.8110   30.4050 C.2   631  TYR631      0.2264
    142  O         60.0960   15.8260   30.3090 O.2   631  TYR631     -0.2867
    143  CB        59.4740   12.9140   28.7320 C.3   631  TYR631      0.0534
    144  CG        59.6880   13.8420   27.5480 C.ar  631  TYR631     -0.0201
    145  CD1       60.7720   13.6670   26.6730 C.ar  631  TYR631     -0.0009
    146  CD2       58.8170   14.9070   27.3100 C.ar  631  TYR631     -0.0009
    147  CE1       60.9770   14.5380   25.5870 C.ar  631  TYR631      0.0417
    148  CE2       59.0090   15.7840   26.2300 C.ar  631  TYR631      0.0417
    149  CZ        60.0890   15.5930   25.3750 C.ar  631  TYR631      0.1957
    150  OH        60.2670   16.4730   24.3160 O.3   631  TYR631     -0.2866
    151  N         52.8370    5.2350   23.8910 N.3   675  ASN675     -0.1225
    152  CA        53.7900    6.2980   24.1870 C.3   675  ASN675      0.1785
    153  C         53.0550    7.6230   24.3120 C.2   675  ASN675      0.2597
    154  O         52.9110    8.1650   25.4070 O.2   675  ASN675     -0.2718
    155  CB        54.8280    6.3500   23.0490 C.3   675  ASN675      0.1169
    156  CG        55.9820    7.3180   23.3060 C.2   675  ASN675      0.2627
    157  OD1       55.9120    8.2170   24.1600 O.2   675  ASN675     -0.2716
    158  ND2       57.0590    7.1470   22.5330 N.am  675  ASN675     -0.0877
    159  N         52.6100    8.1660   23.1850 N.am  676  VAL676     -0.1980
    160  CA        51.6220    9.2190   23.2450 C.3   676  VAL676      0.1595
    161  C         50.2700    8.6290   22.9150 C.2   676  VAL676      0.2287
    162  O         49.9980    8.2200   21.7890 O.2   676  VAL676     -0.2864
    163  CB        52.0370   10.6030   22.5850 C.3   676  VAL676      0.0276
    164  CG1       53.4670   10.6090   22.0350 C.3   676  VAL676      0.0022
    165  CG2       51.0010   11.1600   21.6510 C.3   676  VAL676      0.0022
    166  N         51.1050    1.6370   16.5960 N.3   704  ASP704     -0.1225
    167  CA        51.6670    2.3620   17.7260 C.3   704  ASP704      0.1805
    168  C         52.2580    3.6970   17.2910 C.2   704  ASP704      0.2598
    169  O         51.8840    4.2350   16.2420 O.2   704  ASP704     -0.2718
    170  CB        52.6540    1.5110   18.5530 C.3   704  ASP704      0.1424
    171  CG        53.9250    1.0690   17.7760 C.2   704  ASP704      0.3668
    172  OD1       54.6710    0.2940   18.3760 O.co2 704  ASP704     -0.2456
    173  OD2       54.2190    1.4570   16.6150 O.co2 704  ASP704     -0.2456
    174  N         53.1660    4.2330   18.0950 N.am  705  HIS705     -0.1961
    175  CA        53.6950    5.5890   17.8800 C.3   705  HIS705      0.1787
    176  C         54.3970    5.7430   16.5450 C.2   705  HIS705      0.2620
    177  O         54.4780    6.8440   15.9980 O.2   705  HIS705     -0.2715
    178  CB        54.6190    5.9940   19.0380 C.3   705  HIS705      0.0785
    179  CG        54.8560    7.4690   19.1280 C.ar  705  HIS705      0.0821
    180  ND1       53.8260    8.3820   19.1420 N.ar  705  HIS705     -0.2267
    181  CD2       56.0010    8.1890   19.1830 C.ar  705  HIS705      0.1154
    182  CE1       54.3250    9.6010   19.2070 C.ar  705  HIS705      0.1986
    183  NE2       55.6420    9.5120   19.2370 N.ar  705  HIS705     -0.2212
    184  N         54.8950    4.6260   16.0170 N.am  706  GLY706     -0.1954
    185  CA        55.6130    4.6340   14.7600 C.3   706  GLY706      0.1869
    186  C         54.7670    4.4360   13.5220 C.2   706  GLY706      0.2309
    187  O         55.2570    4.6740   12.4310 O.2   706  GLY706     -0.2863
    188  N         54.2020    1.9870   11.7860 N.3   708  ALA708     -0.1245
    189  CA        55.3940    1.5220   11.0800 C.3   708  ALA708      0.1562
    190  C         55.2270    0.1980   10.3700 C.2   708  ALA708      0.2260
    191  O         56.1330   -0.2190    9.6580 O.2   708  ALA708     -0.2867
    192  CB        56.5710    1.4500   12.0510 C.3   708  ALA708      0.0290
    193  N         52.2620    2.2200    7.0670 N.3   713  HIS713     -0.1241
    194  CA        53.2220    3.2320    6.6730 C.3   713  HIS713      0.1621
    195  C         52.9170    3.7480    5.2740 C.2   713  HIS713      0.2264
    196  O         52.9520    4.9670    5.0390 O.2   713  HIS713     -0.2867
    197  CB        54.6440    2.6490    6.7470 C.3   713  HIS713      0.0745
    198  CG        55.6870    3.5120    6.1130 C.ar  713  HIS713      0.0817
    199  ND1       56.2650    4.5790    6.7650 N.ar  713  HIS713     -0.2268
    200  CD2       56.2480    3.4700    4.8840 C.ar  713  HIS713      0.1154
    201  CE1       57.1360    5.1640    5.9630 C.ar  713  HIS713      0.1986
    202  NE2       57.1390    4.5130    4.8130 N.ar  713  HIS713     -0.2212
    203  N         51.3180    7.8110    4.4970 N.3   717  TYR717     -0.1241
    204  CA        51.9890    8.6990    3.5410 C.3   717  TYR717      0.1605
    205  C         51.1700    8.9710    2.2710 C.2   717  TYR717      0.2264
    206  O         51.0390   10.1230    1.8430 O.2   717  TYR717     -0.2867
    207  CB        53.4240    8.2250    3.2610 C.3   717  TYR717      0.0534
    208  CG        54.3390    8.6920    4.3770 C.ar  717  TYR717     -0.0201
    209  CD1       54.6900    7.8470    5.4370 C.ar  717  TYR717     -0.0009
    210  CD2       54.7840   10.0100    4.4170 C.ar  717  TYR717     -0.0009
    211  CE1       55.5050    8.3110    6.4890 C.ar  717  TYR717      0.0417
    212  CE2       55.5850   10.4720    5.4560 C.ar  717  TYR717      0.0417
    213  CZ        55.9440    9.6190    6.4800 C.ar  717  TYR717      0.1957
    214  OH        56.7510   10.1000    7.4790 O.3   717  TYR717     -0.2866
@<TRIPOS>BOND
     1     1     2    1
     2     2     5    1
     3     2     3    1
     4     5     6    1
     5     3     4    2
     6     6     8   ar
     7     6     7   ar
     8     8    10   ar
     9     7     9   ar
    10   206   205    2
    11   205   204    1
    12    10    11   ar
    13     9    11   ar
    14   207   204    1
    15   207   208    1
    16    11    12    1
    17   204   203    1
    18   208   210   ar
    19   208   209   ar
    20   210   212   ar
    21   202   200   ar
    22   202   201   ar
    23   200   198   ar
    24   196   195    2
    25   195   194    1
    26   209   211   ar
    27   212   213   ar
    28   201   199   ar
    29   198   197    1
    30   198   199   ar
    31   213   211   ar
    32   213   214    1
    33   194   197    1
    34   194   193    1
    35   191   190    2
    36   190   189    1
    37    86    87   ar
    38    86    84   ar
    39   189   188    1
    40   189   192    1
    41    87    85   ar
    42    84    81   ar
    43   187   186    2
    44    85    83   ar
    45    81    83   ar
    46    81    79   ar
    47    83    82   ar
    48   186   185    1
    49    78    79    1
    50    78    75    1
    51    74    75    1
    52    79    80   ar
    53    62    63    1
    54    75    76    1
    55    82    80   ar
    56   185   184    1
    57    63    66    1
    58    63    64    1
    59    66    67    1
    60    76    77    2
    61    76    88   am
    62   177   176    2
    63   184   176   am
    64   169   168    2
    65    64    65    2
    66   176   175    1
    67    67    69   ar
    68    67    68   ar
    69   166   167    1
    70    88    89    1
    71   173   171   ar
    72    69    71   ar
    73   168   167    1
    74   168   174   am
    75    68    70   ar
    76   167   170    1
    77    71    72   ar
    78   171   172   ar
    79   171   170    1
    80    19    20    1
    81    19    18    1
    82   175   174    1
    83   175   178    1
    84    89    92    1
    85    89    90    1
    86    20    21    1
    87    92    93    1
    88    96    97    2
    89    96    95    1
    90    17    18    1
    91    17    14    1
    92    91    90    2
    93    90    94   am
    94    70    72   ar
    95    72    73    1
    96   178   179    1
    97   179   180   ar
    98   179   181   ar
    99   180   182   ar
   100    94    95    1
   101   181   183   ar
   102   182   183   ar
   103    31    30    1
   104    13    14    1
   105    95    98    1
   106    14    15    1
   107    98    99    1
   108   101    99   ar
   109   101   103   ar
   110    25    24    2
   111    27    28    1
   112    27    26    1
   113    30    32    1
   114    30    29    2
   115   106   107    1
   116    16    15    2
   117    99   100   ar
   118    28    29    1
   119   103   104   ar
   120   109   108    2
   121    23    24    1
   122    23    26    1
   123    23    22    1
   124   165   163    1
   125   162   161    2
   126   164   163    1
   127   108   107    1
   128   107   110    1
   129   100   102   ar
   130   158   156   am
   131   163   160    1
   132   104   102   ar
   133   104   105    1
   134   161   160    1
   135   110   112    1
   136   110   111    1
   137   155   156    1
   138   155   152    1
   139   159   160    1
   140   159   153   am
   141    61    60   ar
   142    61    59   ar
   143   156   157    2
   144    60    58   ar
   145    41    39   ar
   146   151   152    1
   147    40    39   ar
   148    59    57   ar
   149   152   153    1
   150   153   154    2
   151   150   149    1
   152    39    38    1
   153    58    56   ar
   154   124   126   ar
   155   124   122   ar
   156   126   125   ar
   157   138   137    1
   158   149   147   ar
   159   149   148   ar
   160    57    56   ar
   161   147   145   ar
   162   135   137   ar
   163   135   133   ar
   164    56    55    1
   165   137   136   ar
   166    38    37    1
   167   122   121   ar
   168   122   120   ar
   169   125   123   ar
   170   148   146   ar
   171   121   119   ar
   172   133   132   ar
   173    36    35    2
   174   136   134   ar
   175   145   144   ar
   176    37    34    1
   177    55    52    1
   178    34    35    1
   179    34    33    1
   180   120   123   ar
   181   120   118   ar
   182   132   134   ar
   183   132   131    1
   184   146   144   ar
   185    50    48   ar
   186    35    42   am
   187    49    48   ar
   188   119   118   ar
   189   144   143    1
   190    51    52    1
   191    48    47    1
   192   131   128    1
   193   118   117    1
   194    52    53    1
   195   113   114    1
   196    42    43    1
   197   143   140    1
   198   128   127    1
   199   128   129    1
   200    43    44    1
   201    43    46    1
   202   114   117    1
   203   114   115    1
   204    47    46    1
   205    53    54    2
   206    45    44    2
   207   140   141    1
   208   140   139    1
   209   129   130    2
   210   115   116    2
   211   142   141    2
