@<TRIPOS>MOLECULE
tmp/1r9nG00.pdb
 209 207 0 0 0
SMALL
GASTEIGER

@<TRIPOS>ATOM
      1  N         95.7000   58.3290   23.2350 N.3     9  TYR9       -0.1241
      2  CA        95.8670   58.5260   24.6800 C.3     9  TYR9        0.1605
      3  C         96.7060   59.7720   25.0040 C.2     9  TYR9        0.2264
      4  O         96.3350   60.5830   25.8560 O.2     9  TYR9       -0.2867
      5  CB        96.5140   57.2970   25.3460 C.3     9  TYR9        0.0534
      6  CG        96.9150   57.5500   26.7860 C.ar    9  TYR9       -0.0201
      7  CD1       95.9630   57.9670   27.7300 C.ar    9  TYR9       -0.0009
      8  CD2       98.2420   57.3970   27.2100 C.ar    9  TYR9       -0.0009
      9  CE1       96.3200   58.2260   29.0600 C.ar    9  TYR9        0.0417
     10  CE2       98.6070   57.6500   28.5460 C.ar    9  TYR9        0.0417
     11  CZ        97.6380   58.0670   29.4600 C.ar    9  TYR9        0.1957
     12  OH        97.9590   58.3220   30.7780 O.3     9  TYR9       -0.2866
     13  N        103.1420   76.1730   40.8150 N.3    83  LYS83      -0.1245
     14  CA       102.8870   74.9770   41.6350 C.3    83  LYS83       0.1561
     15  C        104.0120   74.7300   42.6330 C.2    83  LYS83       0.2260
     16  O        105.1850   74.9510   42.3210 O.2    83  LYS83      -0.2867
     17  CB       102.6790   73.7360   40.7450 C.3    83  LYS83       0.0271
     18  CG       102.4070   72.4490   41.5250 C.3    83  LYS83       0.0035
     19  CD       102.2250   71.2410   40.6180 C.3    83  LYS83       0.0206
     20  CE       102.3680   69.9530   41.4050 C.3    83  LYS83       0.1093
     21  NZ       103.7130   69.8440   42.0670 N.3    83  LYS83      -0.1314
     22  N        101.6460   68.7590   45.9710 N.3    86  ARG86      -0.1245
     23  CA       100.4340   68.2040   45.3710 C.3    86  ARG86       0.1563
     24  C         99.2860   69.2170   45.3530 C.2    86  ARG86       0.2260
     25  O         98.4830   69.2580   44.4000 O.2    86  ARG86      -0.2867
     26  CB       100.0050   66.9090   46.0610 C.3    86  ARG86       0.0307
     27  CG        99.0660   66.0760   45.2150 C.3    86  ARG86       0.0489
     28  CD        98.4370   64.9180   45.9550 C.3    86  ARG86       0.2205
     29  NE        99.3800   63.8620   46.3070 N.pl3  86  ARG86      -0.0865
     30  CZ        99.5340   62.7260   45.6340 C.cat  86  ARG86       0.5346
     31  NH1       98.8280   62.4870   44.5330 N.pl3  86  ARG86       0.1354
     32  NH2      100.4060   61.8150   46.0580 N.pl3  86  ARG86       0.1354
     33  N        100.3510   66.8680   52.4350 N.3   166  GLU166     -0.1231
     34  CA       100.2830   65.6110   51.6980 C.3   166  GLU166      0.1699
     35  C         99.4600   64.5260   52.4090 C.2   166  GLU166      0.2592
     36  O         98.5700   63.9120   51.8060 O.2   166  GLU166     -0.2718
     37  CB       101.7150   65.1300   51.3920 C.3   166  GLU166      0.0402
     38  CG       101.8920   63.6990   50.8810 C.3   166  GLU166      0.1161
     39  CD       101.2960   63.4410   49.5060 C.2   166  GLU166      0.3649
     40  OE1      100.8730   64.3870   48.8190 O.co2 166  GLU166     -0.2457
     41  OE2      101.2330   62.2610   49.1140 O.co2 166  GLU166     -0.2457
     42  N         99.7630   64.3070   53.6840 N.am  167  GLU167     -0.1979
     43  CA        99.2840   63.1350   54.4140 C.3   167  GLU167      0.1602
     44  C         98.1330   63.3660   55.3770 C.2   167  GLU167      0.2287
     45  O         97.4470   62.4100   55.7450 O.2   167  GLU167     -0.2864
     46  CB       100.4220   62.5100   55.2100 C.3   167  GLU167      0.0415
     47  CG       101.6670   62.2230   54.4180 C.3   167  GLU167      0.1163
     48  CD       101.4780   61.1570   53.3560 C.2   167  GLU167      0.3649
     49  OE1      100.3260   60.7830   53.0430 O.co2 167  GLU167     -0.2457
     50  OE2      102.5030   60.7010   52.8200 O.co2 167  GLU167     -0.2457
     51  N         92.0570   56.5620   55.9140 N.3   318  PHE318     -0.1241
     52  CA        93.3710   57.2090   55.9440 C.3   318  PHE318      0.1605
     53  C         93.5050   58.0890   57.1900 C.2   318  PHE318      0.2264
     54  O         94.5330   58.0800   57.8680 O.2   318  PHE318     -0.2867
     55  CB        93.6180   58.0100   54.6550 C.3   318  PHE318      0.0534
     56  CG        93.4690   57.1880   53.3960 C.ar  318  PHE318     -0.0203
     57  CD1       94.4900   56.3210   52.9840 C.ar  318  PHE318     -0.0042
     58  CD2       92.3010   57.2630   52.6330 C.ar  318  PHE318     -0.0042
     59  CE1       94.3530   55.5510   51.8220 C.ar  318  PHE318     -0.0003
     60  CE2       92.1550   56.4960   51.4700 C.ar  318  PHE318     -0.0003
     61  CZ        93.1860   55.6380   51.0650 C.ar  318  PHE318     -0.0000
     62  N         98.2120   48.5860   42.0950 N.3   508  TYR508     -0.1241
     63  CA        98.4610   49.5880   43.1220 C.3   508  TYR508      0.1605
     64  C         98.6000   48.8900   44.4760 C.2   508  TYR508      0.2264
     65  O         99.7090   48.8090   45.0380 O.2   508  TYR508     -0.2867
     66  CB        97.3800   50.6760   43.1570 C.3   508  TYR508      0.0534
     67  CG        97.7820   51.7640   44.1080 C.ar  508  TYR508     -0.0201
     68  CD1       97.1490   51.9070   45.3500 C.ar  508  TYR508     -0.0009
     69  CD2       98.8630   52.5950   43.8150 C.ar  508  TYR508     -0.0009
     70  CE1       97.5560   52.8830   46.2550 C.ar  508  TYR508      0.0417
     71  CE2       99.2730   53.5640   44.7100 C.ar  508  TYR508      0.0417
     72  CZ        98.6120   53.7020   45.9250 C.ar  508  TYR508      0.1957
     73  OH        99.0290   54.6510   46.7990 O.3   508  TYR508     -0.2866
     74  N        102.7620   52.2000   39.7720 N.3   590  TRP590     -0.1227
     75  CA       103.3650   53.4690   40.0900 C.3   590  TRP590      0.1737
     76  C        103.3010   53.6200   41.6130 C.2   590  TRP590      0.2596
     77  O        102.2650   53.3610   42.2380 O.2   590  TRP590     -0.2718
     78  CB       102.5660   54.5690   39.3800 C.3   590  TRP590      0.0564
     79  CG       103.2340   55.9080   39.1700 C.ar  590  TRP590      0.0003
     80  CD1      103.7420   56.7510   40.1290 C.ar  590  TRP590      0.0946
     81  CD2      103.3910   56.5910   37.9160 C.ar  590  TRP590      0.0152
     82  NE1      104.2230   57.9130   39.5420 N.ar  590  TRP590     -0.2442
     83  CE2      104.0180   57.8380   38.1880 C.ar  590  TRP590      0.0810
     84  CE3      103.0550   56.2730   36.5830 C.ar  590  TRP590      0.0012
     85  CZ2      104.3310   58.7520   37.1830 C.ar  590  TRP590      0.0191
     86  CZ3      103.3720   57.1870   35.5730 C.ar  590  TRP590      0.0001
     87  CH2      104.0160   58.4070   35.8830 C.ar  590  TRP590      0.0015
     88  N        104.4370   54.0010   42.1980 N.am  591  SER591     -0.1938
     89  CA       104.5330   54.4070   43.5910 C.3   591  SER591      0.2055
     90  C        104.3810   53.2390   44.5680 C.2   591  SER591      0.2643
     91  O        105.3010   52.4140   44.6860 O.2   591  SER591     -0.2714
     92  CB       103.5510   55.5370   43.8610 C.3   591  SER591      0.2130
     93  OG       103.8930   56.1870   45.0610 O.3   591  SER591     -0.2179
     94  N        103.2450   53.1380   45.2610 N.am  592  TYR592     -0.1973
     95  CA       102.9920   51.9370   46.0540 C.3   592  TYR592      0.1639
     96  C        102.9470   50.7650   45.0790 C.2   592  TYR592      0.2290
     97  O        103.4490   49.6800   45.3730 O.2   592  TYR592     -0.2864
     98  CB       101.6960   52.0210   46.8820 C.3   592  TYR592      0.0560
     99  CG       101.6600   51.0030   48.0020 C.ar  592  TYR592     -0.0198
    100  CD1      101.8200   51.3890   49.3360 C.ar  592  TYR592     -0.0009
    101  CD2      101.4980   49.6390   47.7270 C.ar  592  TYR592     -0.0009
    102  CE1      101.8050   50.4420   50.3660 C.ar  592  TYR592      0.0417
    103  CE2      101.4890   48.6900   48.7450 C.ar  592  TYR592      0.0417
    104  CZ       101.6400   49.0900   50.0560 C.ar  592  TYR592      0.1957
    105  OH       101.6270   48.1270   51.0470 O.3   592  TYR592     -0.2866
    106  N        108.3840   53.0090   46.0890 N.3   617  VAL617     -0.1245
    107  CA       108.9520   52.9060   47.4250 C.3   617  VAL617      0.1561
    108  C        109.8580   51.6680   47.3690 C.2   617  VAL617      0.2260
    109  O        109.5720   50.7040   46.6330 O.2   617  VAL617     -0.2867
    110  CB       107.8600   52.7440   48.5140 C.3   617  VAL617      0.0252
    111  CG1      108.4800   52.7000   49.9190 C.3   617  VAL617      0.0019
    112  CG2      106.8250   53.8650   48.4060 C.3   617  VAL617      0.0019
    113  N        110.6710   51.1180   53.6650 N.3   620  TRP620     -0.1241
    114  CA       109.7350   52.0550   54.3010 C.3   620  TRP620      0.1605
    115  C        110.3750   53.1270   55.1890 C.2   620  TRP620      0.2264
    116  O        109.7710   54.1710   55.3990 O.2   620  TRP620     -0.2867
    117  CB       108.6080   51.3020   55.0190 C.3   620  TRP620      0.0550
    118  CG       107.6760   50.6840   54.0320 C.ar  620  TRP620      0.0003
    119  CD1      107.5950   49.3590   53.6910 C.ar  620  TRP620      0.0946
    120  CD2      106.7250   51.3710   53.2080 C.ar  620  TRP620      0.0152
    121  NE1      106.6410   49.1830   52.7260 N.ar  620  TRP620     -0.2442
    122  CE2      106.0900   50.3990   52.4090 C.ar  620  TRP620      0.0810
    123  CE3      106.3410   52.7150   53.0760 C.ar  620  TRP620      0.0012
    124  CZ2      105.0920   50.7250   51.4860 C.ar  620  TRP620      0.0191
    125  CZ3      105.3430   53.0390   52.1590 C.ar  620  TRP620      0.0001
    126  CH2      104.7330   52.0420   51.3770 C.ar  620  TRP620      0.0015
    127  N        110.2740   56.4680   53.5340 N.3   623  TYR623     -0.1241
    128  CA       109.0200   57.1770   53.2700 C.3   623  TYR623      0.1605
    129  C        108.6030   58.0500   54.4630 C.2   623  TYR623      0.2264
    130  O        109.2140   57.9700   55.5250 O.2   623  TYR623     -0.2867
    131  CB       107.9090   56.2430   52.7090 C.3   623  TYR623      0.0534
    132  CG       106.8080   57.0220   52.0110 C.ar  623  TYR623     -0.0201
    133  CD1      107.0930   57.8360   50.9020 C.ar  623  TYR623     -0.0009
    134  CD2      105.4930   56.9910   52.4900 C.ar  623  TYR623     -0.0009
    135  CE1      106.0990   58.6000   50.2900 C.ar  623  TYR623      0.0417
    136  CE2      104.4800   57.7500   51.8810 C.ar  623  TYR623      0.0417
    137  CZ       104.7930   58.5520   50.7870 C.ar  623  TYR623      0.1957
    138  OH       103.7980   59.2870   50.1950 O.3   623  TYR623     -0.2866
    139  N        102.1410   58.7890   56.9780 N.3   627  TYR627     -0.1241
    140  CA       101.6930   57.6650   56.1310 C.3   627  TYR627      0.1605
    141  C        102.2480   56.3200   56.5820 C.2   627  TYR627      0.2264
    142  O        101.4950   55.3780   56.7680 O.2   627  TYR627     -0.2867
    143  CB       102.0180   57.8760   54.6380 C.3   627  TYR627      0.0534
    144  CG       101.5620   56.7100   53.7620 C.ar  627  TYR627     -0.0201
    145  CD1      100.3010   56.7160   53.1520 C.ar  627  TYR627     -0.0009
    146  CD2      102.3710   55.5900   53.5770 C.ar  627  TYR627     -0.0009
    147  CE1       99.8650   55.6290   52.3630 C.ar  627  TYR627      0.0417
    148  CE2      101.9530   54.5110   52.7980 C.ar  627  TYR627      0.0417
    149  CZ       100.7000   54.5350   52.1970 C.ar  627  TYR627      0.1957
    150  OH       100.2990   53.4760   51.4190 O.3   627  TYR627     -0.2866
    151  N        108.1410   63.4840   47.0740 N.3   671  ASN671     -0.1225
    152  CA       107.3060   62.5170   47.7280 C.3   671  ASN671      0.1785
    153  C        108.0430   61.1890   47.9200 C.2   671  ASN671      0.2597
    154  O        108.5460   60.9230   49.0150 O.2   671  ASN671     -0.2718
    155  CB       106.0250   62.3740   46.9060 C.3   671  ASN671      0.1169
    156  CG       104.9550   61.5840   47.6060 C.2   671  ASN671      0.2627
    157  OD1      105.2120   60.8720   48.5810 O.2   671  ASN671     -0.2716
    158  ND2      103.7340   61.6780   47.0850 N.am  671  ASN671     -0.0877
    159  N        108.0900   60.3480   46.8830 N.am  672  VAL672     -0.1980
    160  CA       108.8950   59.1260   46.9310 C.3   672  VAL672      0.1595
    161  C        110.2400   59.5040   46.3380 C.2   672  VAL672      0.2287
    162  O        110.3740   59.6220   45.1170 O.2   672  VAL672     -0.2864
    163  CB       108.2510   57.9480   46.1540 C.3   672  VAL672      0.0276
    164  CG1      109.2190   56.7780   46.0070 C.3   672  VAL672      0.0022
    165  CG2      106.9750   57.4810   46.8380 C.3   672  VAL672      0.0022
    166  N        108.8090   65.4100   39.1300 N.3   700  ASP700     -0.1225
    167  CA       108.3970   64.9590   40.4570 C.3   700  ASP700      0.1805
    168  C        107.6340   63.6390   40.3930 C.2   700  ASP700      0.2598
    169  O        107.8010   62.8680   39.4390 O.2   700  ASP700     -0.2718
    170  CB       107.6370   66.0390   41.2340 C.3   700  ASP700      0.1424
    171  CG       106.3230   66.4720   40.5780 C.2   700  ASP700      0.3668
    172  OD1      105.8560   67.5560   40.9810 O.co2 700  ASP700     -0.2456
    173  OD2      105.7410   65.7690   39.6930 O.co2 700  ASP700     -0.2456
    174  N        106.7990   63.3880   41.4040 N.am  701  HIS701     -0.1961
    175  CA       106.1420   62.0950   41.5740 C.3   701  HIS701      0.1787
    176  C        105.1870   61.7820   40.4650 C.2   701  HIS701      0.2620
    177  O        104.9390   60.6190   40.1620 O.2   701  HIS701     -0.2715
    178  CB       105.4020   62.0030   42.9080 C.3   701  HIS701      0.0785
    179  CG       105.1200   60.5910   43.3330 C.ar  701  HIS701      0.0821
    180  ND1      106.1100   59.6340   43.4330 N.ar  701  HIS701     -0.2267
    181  CD2      103.9650   59.9770   43.6870 C.ar  701  HIS701      0.1154
    182  CE1      105.5790   58.4950   43.8380 C.ar  701  HIS701      0.1986
    183  NE2      104.2770   58.6740   43.9950 N.ar  701  HIS701     -0.2212
    184  N        104.6480   62.8300   39.8620 N.am  702  GLY702     -0.1954
    185  CA       103.6680   62.6680   38.8210 C.3   702  GLY702      0.1869
    186  C        104.2550   62.3970   37.4510 C.2   702  GLY702      0.2309
    187  O        103.5330   61.9070   36.5840 O.2   702  GLY702     -0.2863
    188  N        105.4970   63.1450   30.3450 N.3   709  HIS709     -0.1241
    189  CA       104.3280   62.2790   30.3300 C.3   709  HIS709      0.1621
    190  C        104.2570   61.4450   29.0320 C.2   709  HIS709      0.2264
    191  O        104.0450   60.2350   29.0800 O.2   709  HIS709     -0.2867
    192  CB       103.0400   63.0840   30.5330 C.3   709  HIS709      0.0745
    193  CG       101.7990   62.3110   30.2140 C.ar  709  HIS709      0.0817
    194  ND1      101.3660   61.2540   30.9860 N.ar  709  HIS709     -0.2268
    195  CD2      100.9170   62.4210   29.1930 C.ar  709  HIS709      0.1154
    196  CE1      100.2650   60.7500   30.4590 C.ar  709  HIS709      0.1986
    197  NE2       99.9770   61.4350   29.3650 N.ar  709  HIS709     -0.2212
    198  N        105.3740   57.0470   28.7860 N.3   713  TYR713     -0.1241
    199  CA       104.3980   56.0930   28.2490 C.3   713  TYR713      0.1605
    200  C        104.8320   55.4680   26.9320 C.2   713  TYR713      0.2264
    201  O        104.5700   54.2730   26.6880 O.2   713  TYR713     -0.2867
    202  CB       102.9750   56.6980   28.1780 C.3   713  TYR713      0.0534
    203  CG       102.3150   56.6460   29.5350 C.ar  713  TYR713     -0.0201
    204  CD1      102.2020   57.7840   30.3390 C.ar  713  TYR713     -0.0009
    205  CD2      101.8780   55.4420   30.0440 C.ar  713  TYR713     -0.0009
    206  CE1      101.6220   57.7100   31.6180 C.ar  713  TYR713      0.0417
    207  CE2      101.2950   55.3540   31.2930 C.ar  713  TYR713      0.0417
    208  CZ       101.1690   56.4790   32.0760 C.ar  713  TYR713      0.1957
    209  OH       100.6030   56.3280   33.3190 O.3   713  TYR713     -0.2866
@<TRIPOS>BOND
     1     1     2    1
     2     2     3    1
     3     2     5    1
     4     3     4    2
     5     5     6    1
     6   201   200    2
     7     6     8   ar
     8     6     7   ar
     9   200   199    1
    10     8    10   ar
    11     7     9   ar
    12   202   199    1
    13   202   203    1
    14   199   198    1
    15    10    11   ar
    16   190   191    2
    17   190   189    1
    18     9    11   ar
    19   195   197   ar
    20   195   193   ar
    21   197   196   ar
    22    11    12    1
    23   203   205   ar
    24   203   204   ar
    25   205   207   ar
    26   193   192    1
    27   193   194   ar
    28   189   188    1
    29   189   192    1
    30   204   206   ar
    31   196   194   ar
    32   207   208   ar
    33   206   208   ar
    34   208   209    1
    35    86    87   ar
    36    86    84   ar
    37    87    85   ar
    38    84    81   ar
    39   187   186    2
    40    85    83   ar
    41   186   185    1
    42    81    83   ar
    43    81    79   ar
    44    83    82   ar
    45   185   184    1
    46   166   167    1
    47    79    78    1
    48    79    80   ar
    49    78    75    1
    50   169   168    2
    51    82    80   ar
    52   173   171   ar
    53    74    75    1
    54   184   176   am
    55    75    76    1
    56   177   176    2
    57   168   167    1
    58   168   174   am
    59   167   170    1
    60   176   175    1
    61   171   172   ar
    62   171   170    1
    63    19    20    1
    64    19    18    1
    65    17    18    1
    66    17    14    1
    67    13    14    1
    68   174   175    1
    69    20    21    1
    70   175   178    1
    71    76    88   am
    72    76    77    2
    73    14    15    1
    74    62    63    1
    75    88    89    1
    76    16    15    2
    77   178   179    1
    78    63    66    1
    79    63    64    1
    80    66    67    1
    81   179   180   ar
    82   179   181   ar
    83   180   182   ar
    84    89    92    1
    85    89    90    1
    86   181   183   ar
    87    69    67   ar
    88    69    71   ar
    89   182   183   ar
    90    92    93    1
    91    67    68   ar
    92    25    24    2
    93    64    65    2
    94    31    30    1
    95    90    91    2
    96    90    94   am
    97    71    72   ar
    98    96    97    2
    99    96    95    1
   100   162   161    2
   101    27    28    1
   102    27    26    1
   103    94    95    1
   104    68    70   ar
   105    24    23    1
   106    23    22    1
   107    23    26    1
   108    30    32    1
   109    30    29    2
   110    72    70   ar
   111    72    73    1
   112    28    29    1
   113   164   163    1
   114    95    98    1
   115   106   107    1
   116   163   165    1
   117   163   160    1
   118   161   160    1
   119   109   108    2
   120    98    99    1
   121   159   160    1
   122   159   153   am
   123   155   156    1
   124   155   152    1
   125   151   152    1
   126   158   156   am
   127   108   107    1
   128   107   110    1
   129   156   157    2
   130   101    99   ar
   131   101   103   ar
   132   152   153    1
   133   153   154    2
   134    99   100   ar
   135   112   110    1
   136   110   111    1
   137   103   104   ar
   138    40    39   ar
   139    41    39   ar
   140   100   102   ar
   141    39    38    1
   142   104   102   ar
   143   104   105    1
   144   138   137    1
   145   135   137   ar
   146   135   133   ar
   147   137   136   ar
   148    38    37    1
   149   133   132   ar
   150    61    60   ar
   151    61    59   ar
   152   126   124   ar
   153   126   125   ar
   154    37    34    1
   155   150   149    1
   156    60    58   ar
   157   124   122   ar
   158    34    35    1
   159    34    33    1
   160    36    35    2
   161    59    57   ar
   162   136   134   ar
   163   132   134   ar
   164   132   131    1
   165   125   123   ar
   166   149   147   ar
   167   149   148   ar
   168   147   145   ar
   169    35    42   am
   170   122   121   ar
   171   122   120   ar
   172    58    56   ar
   173   131   128    1
   174   121   119   ar
   175   148   146   ar
   176    50    48   ar
   177    57    56   ar
   178    49    48   ar
   179   123   120   ar
   180   145   144   ar
   181   120   118   ar
   182   128   127    1
   183   128   129    1
   184    48    47    1
   185    56    55    1
   186   146   144   ar
   187   113   114    1
   188    42    43    1
   189   119   118   ar
   190   144   143    1
   191   118   117    1
   192   114   117    1
   193   114   115    1
   194    43    46    1
   195    43    44    1
   196    47    46    1
   197   129   130    2
   198   143   140    1
   199    55    52    1
   200   115   116    2
   201    44    45    2
   202    51    52    1
   203    52    53    1
   204   140   141    1
   205   140   139    1
   206   141   142    2
   207    53    54    2
