@<TRIPOS>MOLECULE
tmp/1r9nE00.pdb
 211 209 0 0 0
SMALL
GASTEIGER

@<TRIPOS>ATOM
      1  N         14.5010   38.9920   29.9470 N.3     9  TYR9       -0.1241
      2  CA        14.7560   40.4100   30.1950 C.3     9  TYR9        0.1605
      3  C         14.4230   40.7850   31.6390 C.2     9  TYR9        0.2264
      4  O         15.2940   41.2360   32.3760 O.2     9  TYR9       -0.2867
      5  CB        14.0280   41.3300   29.1930 C.3     9  TYR9        0.0534
      6  CG        14.1900   42.7960   29.5480 C.ar    9  TYR9       -0.0201
      7  CD1       15.4620   43.3390   29.7650 C.ar    9  TYR9       -0.0009
      8  CD2       13.0730   43.6330   29.7090 C.ar    9  TYR9       -0.0009
      9  CE1       15.6230   44.6670   30.1220 C.ar    9  TYR9        0.0417
     10  CE2       13.2260   44.9710   30.0580 C.ar    9  TYR9        0.0417
     11  CZ        14.5040   45.4770   30.2630 C.ar    9  TYR9        0.1957
     12  OH        14.6910   46.7830   30.6220 O.3     9  TYR9       -0.2866
     13  N         18.3380   61.7240   41.9900 N.3    86  ARG86      -0.1245
     14  CA        19.1400   60.8850   41.0950 C.3    86  ARG86       0.1563
     15  C         20.4680   60.4520   41.7120 C.2    86  ARG86       0.2260
     16  O         20.9180   59.3250   41.5090 O.2    86  ARG86      -0.2867
     17  CB        19.3960   61.5640   39.7460 C.3    86  ARG86       0.0307
     18  CG        19.8540   60.5770   38.6720 C.3    86  ARG86       0.0489
     19  CD        20.3730   61.2440   37.4080 C.3    86  ARG86       0.2205
     20  NE        19.3340   61.9770   36.6810 N.pl3  86  ARG86      -0.0865
     21  CZ        18.5950   61.4930   35.6780 C.cat  86  ARG86       0.5346
     22  NH1       18.7490   60.2420   35.2610 N.pl3  86  ARG86       0.1354
     23  NH2       17.6880   62.2730   35.0900 N.pl3  86  ARG86       0.1354
     24  N         20.6470   67.6770   39.7190 N.3   166  GLU166     -0.1231
     25  CA        20.2280   67.0710   38.4560 C.3   166  GLU166      0.1699
     26  C         20.8860   67.6690   37.2100 C.2   166  GLU166      0.2592
     27  O         21.2780   66.9270   36.3140 O.2   166  GLU166     -0.2718
     28  CB        18.6880   67.1100   38.3270 C.3   166  GLU166      0.0402
     29  CG        18.1180   66.6050   36.9900 C.3   166  GLU166      0.1161
     30  CD        18.3620   65.1170   36.7220 C.2   166  GLU166      0.3649
     31  OE1       18.5990   64.3390   37.6740 O.co2 166  GLU166     -0.2457
     32  OE2       18.3000   64.7090   35.5400 O.co2 166  GLU166     -0.2457
     33  N         20.9910   68.9980   37.1550 N.am  167  GLU167     -0.1979
     34  CA        21.3160   69.6950   35.9090 C.3   167  GLU167      0.1602
     35  C         22.7390   70.2290   35.8010 C.2   167  GLU167      0.2287
     36  O         23.2670   70.3480   34.6970 O.2   167  GLU167     -0.2864
     37  CB        20.3350   70.8490   35.6490 C.3   167  GLU167      0.0415
     38  CG        18.8440   70.4880   35.5270 C.3   167  GLU167      0.1163
     39  CD        18.5480   69.3790   34.5080 C.2   167  GLU167      0.3649
     40  OE1       19.4700   68.9190   33.7850 O.co2 167  GLU167     -0.2457
     41  OE2       17.3740   68.9560   34.4430 O.co2 167  GLU167     -0.2457
     42  N         26.7680   69.7880   27.7240 N.3   318  PHE318     -0.1241
     43  CA        25.7010   70.0780   28.6820 C.3   318  PHE318      0.1605
     44  C         26.1300   71.1820   29.6370 C.2   318  PHE318      0.2264
     45  O         25.2990   71.8050   30.2870 O.2   318  PHE318     -0.2867
     46  CB        25.3310   68.8160   29.4710 C.3   318  PHE318      0.0534
     47  CG        24.7630   67.7340   28.6190 C.ar  318  PHE318     -0.0203
     48  CD1       23.3870   67.6450   28.4180 C.ar  318  PHE318     -0.0042
     49  CD2       25.5970   66.8150   27.9870 C.ar  318  PHE318     -0.0042
     50  CE1       22.8420   66.6460   27.6060 C.ar  318  PHE318     -0.0003
     51  CE2       25.0600   65.8080   27.1690 C.ar  318  PHE318     -0.0003
     52  CZ        23.6790   65.7290   26.9860 C.ar  318  PHE318     -0.0000
     53  N         15.0870   58.8680   21.4880 N.3   508  TYR508     -0.1241
     54  CA        15.3850   59.7860   22.5650 C.3   508  TYR508      0.1605
     55  C         15.4380   61.1830   21.9580 C.2   508  TYR508      0.2264
     56  O         14.5290   61.9830   22.1800 O.2   508  TYR508     -0.2867
     57  CB        16.6620   59.4140   23.3570 C.3   508  TYR508      0.0534
     58  CG        16.8050   60.3160   24.5600 C.ar  508  TYR508     -0.0201
     59  CD1       17.7390   61.3710   24.5640 C.ar  508  TYR508     -0.0009
     60  CD2       15.9460   60.1770   25.6550 C.ar  508  TYR508     -0.0009
     61  CE1       17.8210   62.2470   25.6250 C.ar  508  TYR508      0.0417
     62  CE2       16.0350   61.0330   26.7410 C.ar  508  TYR508      0.0417
     63  CZ        16.9750   62.0690   26.7140 C.ar  508  TYR508      0.1957
     64  OH        17.0590   62.9240   27.7780 O.3   508  TYR508     -0.2866
     65  N         22.3600   64.0260   22.1580 N.3   513  SER513     -0.1217
     66  CA        22.0910   62.6180   22.4090 C.3   513  SER513      0.1889
     67  C         22.7230   61.6870   21.3750 C.2   513  SER513      0.2288
     68  O         23.0090   62.0810   20.2430 O.2   513  SER513     -0.2866
     69  CB        20.5860   62.3780   22.4610 C.3   513  SER513      0.2089
     70  OG        20.0340   62.5310   21.1750 O.3   513  SER513     -0.2183
     71  N         11.2180   57.5000   26.2590 N.3   590  TRP590     -0.1227
     72  CA        11.1180   57.8340   27.6530 C.3   590  TRP590      0.1737
     73  C         11.6210   59.2550   27.8290 C.2   590  TRP590      0.2596
     74  O         12.6940   59.6060   27.3300 O.2   590  TRP590     -0.2718
     75  CB        11.9840   56.8580   28.4440 C.3   590  TRP590      0.0564
     76  CG        11.6270   56.6570   29.8750 C.ar  590  TRP590      0.0003
     77  CD1       11.6010   57.6050   30.8610 C.ar  590  TRP590      0.0946
     78  CD2       11.2940   55.4050   30.5070 C.ar  590  TRP590      0.0152
     79  NE1       11.2560   57.0300   32.0640 N.ar  590  TRP590     -0.2442
     80  CE2       11.0600   55.6800   31.8800 C.ar  590  TRP590      0.0810
     81  CE3       11.1530   54.0820   30.0440 C.ar  590  TRP590      0.0012
     82  CZ2       10.6880   54.6740   32.8070 C.ar  590  TRP590      0.0191
     83  CZ3       10.7810   53.0720   30.9730 C.ar  590  TRP590      0.0001
     84  CH2       10.5550   53.3890   32.3440 C.ar  590  TRP590      0.0015
     85  N         10.8300   60.0650   28.5330 N.am  591  SER591     -0.1938
     86  CA        11.2020   61.4340   28.9410 C.3   591  SER591      0.2055
     87  C         11.2860   62.4060   27.7510 C.2   591  SER591      0.2643
     88  O         10.2420   62.7300   27.1740 O.2   591  SER591     -0.2714
     89  CB        12.4710   61.4130   29.7790 C.3   591  SER591      0.2130
     90  OG        12.5240   62.5480   30.6300 O.3   591  SER591     -0.2179
     91  N         12.4890   62.8720   27.3840 N.am  592  TYR592     -0.1973
     92  CA        12.6670   63.6190   26.1240 C.3   592  TYR592      0.1639
     93  C         12.1930   62.7890   24.9250 C.2   592  TYR592      0.2290
     94  O         11.6190   63.3260   23.9700 O.2   592  TYR592     -0.2864
     95  CB        14.1190   64.0490   25.8890 C.3   592  TYR592      0.0560
     96  CG        14.2250   65.1930   24.9000 C.ar  592  TYR592     -0.0198
     97  CD1       14.5260   66.4760   25.3250 C.ar  592  TYR592     -0.0009
     98  CD2       13.9650   64.9980   23.5360 C.ar  592  TYR592     -0.0009
     99  CE1       14.5760   67.5430   24.4240 C.ar  592  TYR592      0.0417
    100  CE2       14.0140   66.0490   22.6380 C.ar  592  TYR592      0.0417
    101  CZ        14.3280   67.3090   23.0870 C.ar  592  TYR592      0.1957
    102  OH        14.3980   68.3370   22.1880 O.3   592  TYR592     -0.2866
    103  N          7.9090   64.8940   28.5400 N.3   617  VAL617     -0.1245
    104  CA         7.7400   66.3310   28.6200 C.3   617  VAL617      0.1561
    105  C          6.5870   66.6180   27.6460 C.2   617  VAL617      0.2260
    106  O          6.4620   65.9400   26.5980 O.2   617  VAL617     -0.2867
    107  CB         9.0640   67.0400   28.2170 C.3   617  VAL617      0.0252
    108  CG1        8.8770   68.5390   27.8770 C.3   617  VAL617      0.0019
    109  CG2       10.1140   66.8620   29.3300 C.3   617  VAL617      0.0019
    110  N          7.4620   73.0750   27.4290 N.3   620  TRP620     -0.1241
    111  CA         8.7580   73.3760   28.0310 C.3   620  TRP620      0.1605
    112  C          8.7200   74.2300   29.3030 C.2   620  TRP620      0.2264
    113  O          9.6230   74.1360   30.1220 O.2   620  TRP620     -0.2867
    114  CB         9.7670   73.8470   26.9760 C.3   620  TRP620      0.0550
    115  CG        10.2250   72.7020   26.1440 C.ar  620  TRP620      0.0003
    116  CD1        9.9150   72.4490   24.8300 C.ar  620  TRP620      0.0946
    117  CD2       11.0370   71.5920   26.5880 C.ar  620  TRP620      0.0152
    118  NE1       10.4920   71.2640   24.4300 N.ar  620  TRP620     -0.2442
    119  CE2       11.1750   70.7130   25.4890 C.ar  620  TRP620      0.0810
    120  CE3       11.6580   71.2600   27.8120 C.ar  620  TRP620      0.0012
    121  CZ2       11.9200   69.5270   25.5700 C.ar  620  TRP620      0.0191
    122  CZ3       12.4000   70.0780   27.8930 C.ar  620  TRP620      0.0001
    123  CH2       12.5270   69.2310   26.7730 C.ar  620  TRP620      0.0015
    124  N          9.1770   72.2940   32.5260 N.3   623  TYR623     -0.1241
    125  CA        10.4810   71.7080   32.8250 C.3   623  TYR623      0.1605
    126  C         11.4070   72.7090   33.5360 C.2   623  TYR623      0.2264
    127  O         11.1010   73.9180   33.5940 O.2   623  TYR623     -0.2867
    128  CB        11.1290   71.0140   31.5820 C.3   623  TYR623      0.0534
    129  CG        12.1500   69.9780   32.0180 C.ar  623  TYR623     -0.0201
    130  CD1       11.7480   68.8900   32.7680 C.ar  623  TYR623     -0.0009
    131  CD2       13.5090   70.1250   31.7540 C.ar  623  TYR623     -0.0009
    132  CE1       12.6430   67.9480   33.2150 C.ar  623  TYR623      0.0417
    133  CE2       14.4240   69.1710   32.2010 C.ar  623  TYR623      0.0417
    134  CZ        13.9680   68.0840   32.9450 C.ar  623  TYR623      0.1957
    135  OH        14.8090   67.1150   33.4460 O.3   623  TYR623     -0.2866
    136  N         18.1490   73.1500   32.4600 N.3   627  TYR627     -0.1241
    137  CA        18.0970   72.3490   31.2610 C.3   627  TYR627      0.1605
    138  C         17.3550   73.0680   30.1390 C.2   627  TYR627      0.2264
    139  O         17.8360   73.1450   29.0160 O.2   627  TYR627     -0.2867
    140  CB        17.4250   71.0110   31.5330 C.3   627  TYR627      0.0534
    141  CG        17.3650   70.1200   30.3060 C.ar  627  TYR627     -0.0201
    142  CD1       18.3370   69.1470   30.0870 C.ar  627  TYR627     -0.0009
    143  CD2       16.3420   70.2600   29.3620 C.ar  627  TYR627     -0.0009
    144  CE1       18.3000   68.3330   28.9660 C.ar  627  TYR627      0.0417
    145  CE2       16.2790   69.4520   28.2300 C.ar  627  TYR627      0.0417
    146  CZ        17.2590   68.4820   28.0430 C.ar  627  TYR627      0.1957
    147  OH        17.2260   67.6770   26.9430 O.3   627  TYR627     -0.2866
    148  N         11.2860   64.8650   38.5630 N.3   671  ASN671     -0.1225
    149  CA        12.0710   65.3720   37.4520 C.3   671  ASN671      0.1785
    150  C         11.1280   65.9310   36.3940 C.2   671  ASN671      0.2597
    151  O         10.9860   67.1600   36.2460 O.2   671  ASN671     -0.2718
    152  CB        12.9220   64.2330   36.8800 C.3   671  ASN671      0.1169
    153  CG        13.9470   64.6910   35.8570 C.2   671  ASN671      0.2627
    154  OD1       13.8480   65.7740   35.2490 O.2   671  ASN671     -0.2716
    155  ND2       14.9480   63.8460   35.6480 N.am  671  ASN671     -0.0877
    156  N         10.5010   65.0370   35.6400 N.am  672  VAL672     -0.1980
    157  CA         9.3920   65.4610   34.8100 C.3   672  VAL672      0.1595
    158  C          8.0740   65.1520   35.5050 C.2   672  VAL672      0.2287
    159  O          7.6860   64.0160   35.6980 O.2   672  VAL672     -0.2864
    160  CB         9.5480   65.1070   33.2770 C.3   672  VAL672      0.0276
    161  CG1       10.7640   64.2610   33.0010 C.3   672  VAL672      0.0022
    162  CG2        8.2370   64.6610   32.6070 C.3   672  VAL672      0.0022
    163  N         10.7900   59.1480   38.0950 N.3   701  HIS701     -0.1226
    164  CA        11.1340   59.2380   36.6750 C.3   701  HIS701      0.1752
    165  C         11.6210   57.9180   36.0770 C.2   701  HIS701      0.2597
    166  O         11.4030   57.6520   34.8960 O.2   701  HIS701     -0.2718
    167  CB        12.1640   60.3590   36.4510 C.3   701  HIS701      0.0759
    168  CG        12.2520   60.8220   35.0310 C.ar  701  HIS701      0.0818
    169  ND1       11.1590   61.2970   34.3380 N.ar  701  HIS701     -0.2268
    170  CD2       13.2980   60.8680   34.1710 C.ar  701  HIS701      0.1154
    171  CE1       11.5260   61.6130   33.1090 C.ar  701  HIS701      0.1986
    172  NE2       12.8210   61.3730   32.9840 N.ar  701  HIS701     -0.2212
    173  N         12.2630   57.0890   36.8960 N.am  702  GLY702     -0.1942
    174  CA        12.8050   55.8350   36.4240 C.3   702  GLY702      0.2014
    175  C         11.7990   54.6950   36.4340 C.2   702  GLY702      0.2639
    176  O         12.0820   53.6290   35.8690 O.2   702  GLY702     -0.2714
    177  N         10.6310   54.8950   37.0620 N.am  703  ILE703     -0.1963
    178  CA         9.6690   53.7960   37.2440 C.3   703  ILE703      0.1727
    179  C         10.4590   52.4700   37.3850 C.2   703  ILE703      0.2616
    180  O         10.3380   51.5400   36.5560 O.2   703  ILE703     -0.2715
    181  CB         8.6140   53.7110   36.1000 C.3   703  ILE703      0.0290
    182  CG1        7.9900   55.0950   35.8460 C.3   703  ILE703      0.0022
    183  CG2        7.5380   52.6450   36.4440 C.3   703  ILE703      0.0023
    184  CD1        7.3200   55.2810   34.5100 C.3   703  ILE703      0.0001
    185  N         11.2710   52.4180   38.4390 N.am  704  ALA704     -0.1977
    186  CA        12.3890   51.4890   38.5180 C.3   704  ALA704      0.1597
    187  C         12.3100   50.5120   39.6880 C.2   704  ALA704      0.2287
    188  O         13.2060   49.6790   39.8660 O.2   704  ALA704     -0.2864
    189  CB        13.7070   52.2610   38.5520 C.3   704  ALA704      0.0319
    190  N          8.8330   48.1320   37.3660 N.3   709  HIS709     -0.1241
    191  CA         9.6590   47.8230   36.1900 C.3   709  HIS709      0.1621
    192  C          9.1110   46.6480   35.4010 C.2   709  HIS709      0.2264
    193  O          8.9880   46.7170   34.1800 O.2   709  HIS709     -0.2867
    194  CB        11.1290   47.5460   36.6000 C.3   709  HIS709      0.0745
    195  CG        11.9910   47.0510   35.4780 C.ar  709  HIS709      0.0817
    196  ND1       12.4850   47.8800   34.4920 N.ar  709  HIS709     -0.2268
    197  CD2       12.4430   45.8080   35.1830 C.ar  709  HIS709      0.1154
    198  CE1       13.1990   47.1690   33.6380 C.ar  709  HIS709      0.1986
    199  NE2       13.1890   45.9100   34.0360 N.ar  709  HIS709     -0.2212
    200  N          6.9270   47.1270   31.4780 N.3   713  TYR713     -0.1241
    201  CA         7.4040   46.4330   30.2830 C.3   713  TYR713      0.1605
    202  C          6.4700   45.3170   29.8490 C.2   713  TYR713      0.2264
    203  O          6.3760   45.0130   28.6540 O.2   713  TYR713     -0.2867
    204  CB         8.8490   45.9320   30.4560 C.3   713  TYR713      0.0534
    205  CG         9.8520   47.0340   30.2870 C.ar  713  TYR713     -0.0201
    206  CD1       10.4160   47.6750   31.3950 C.ar  713  TYR713     -0.0009
    207  CD2       10.1980   47.4850   29.0170 C.ar  713  TYR713     -0.0009
    208  CE1       11.3170   48.7250   31.2380 C.ar  713  TYR713      0.0417
    209  CE2       11.1080   48.5350   28.8510 C.ar  713  TYR713      0.0417
    210  CZ        11.6540   49.1470   29.9680 C.ar  713  TYR713      0.1957
    211  OH        12.5390   50.1810   29.7850 O.3   713  TYR713     -0.2866
@<TRIPOS>BOND
     1    68    67    2
     2    70    69    1
     3    67    66    1
     4    53    54    1
     5    55    56    2
     6    55    54    1
     7    65    66    1
     8   102   101    1
     9    66    69    1
    10    54    57    1
    11   100   101   ar
    12   100    98   ar
    13   101    99   ar
    14    57    58    1
    15    98    96   ar
    16    94    93    2
    17    99    97   ar
    18   118   116   ar
    19   118   119   ar
    20    58    59   ar
    21    58    60   ar
    22    59    61   ar
    23   116   115   ar
    24    96    97   ar
    25    96    95    1
    26    93    92    1
    27   119   121   ar
    28   119   117   ar
    29   121   123   ar
    30    61    63   ar
    31    60    62   ar
    32    95    92    1
    33    92    91    1
    34   115   117   ar
    35   115   114    1
    36    71    72    1
    37   117   120   ar
    38   106   105    2
    39    63    62   ar
    40    63    64    1
    41   123   122   ar
    42   147   146    1
    43   114   111    1
    44    52    51   ar
    45    52    50   ar
    46    51    49   ar
    47    88    87    2
    48    74    73    2
    49    91    87   am
    50   110   111    1
    51    50    48   ar
    52   105   104    1
    53    72    73    1
    54    72    75    1
    55    42    43    1
    56    87    86    1
    57   120   122   ar
    58    73    85   am
    59   108   107    1
    60    49    47   ar
    61   111   112    1
    62   146   145   ar
    63   146   144   ar
    64   107   104    1
    65   107   109    1
    66   145   143   ar
    67    48    47   ar
    68    75    76    1
    69    85    86    1
    70   103   104    1
    71    47    46    1
    72   203   202    2
    73    43    46    1
    74    43    44    1
    75   209   207   ar
    76   209   210   ar
    77    86    89    1
    78   144   142   ar
    79   139   138    2
    80   207   205   ar
    81     5     6    1
    82     5     2    1
    83   112   113    2
    84   143   141   ar
    85     6     8   ar
    86     6     7   ar
    87    44    45    2
    88     8    10   ar
    89     7     9   ar
    90    89    90    1
    91   211   210    1
    92   202   201    1
    93    76    78   ar
    94    76    77   ar
    95     1     2    1
    96   210   208   ar
    97    81    78   ar
    98    81    83   ar
    99    10    11   ar
   100   142   141   ar
   101     9    11   ar
   102   138   137    1
   103     2     3    1
   104    11    12    1
   105   201   204    1
   106   201   200    1
   107   205   204    1
   108   205   206   ar
   109   141   140    1
   110    78    80   ar
   111    77    79   ar
   112    83    84   ar
   113   208   206   ar
   114   137   140    1
   115   137   136    1
   116   128   129    1
   117   128   125    1
   118     3     4    2
   119   131   129   ar
   120   131   133   ar
   121    80    79   ar
   122    80    82   ar
   123   129   130   ar
   124   133   134   ar
   125    84    82   ar
   126   124   125    1
   127   162   160    1
   128   130   132   ar
   129   125   126    1
   130   134   132   ar
   131   134   135    1
   132   172   171   ar
   133   172   170   ar
   134   161   160    1
   135   171   169   ar
   136   160   157    1
   137   126   127    2
   138   198   199   ar
   139   198   196   ar
   140    40    39   ar
   141   199   197   ar
   142   170   168   ar
   143   193   192    2
   144   169   168   ar
   145    41    39   ar
   146   196   195   ar
   147    39    38    1
   148   184   182    1
   149    36    35    2
   150   157   158    1
   151   157   156    1
   152   166   165    2
   153   168   167    1
   154    23    21    1
   155   197   195   ar
   156   154   153    2
   157    22    21    1
   158   192   191    1
   159   195   194    1
   160   158   159    2
   161    38    37    1
   162    32    30   ar
   163   156   150   am
   164   155   153   am
   165    37    34    1
   166    21    20    2
   167    35    34    1
   168   182   181    1
   169   153   152    1
   170   176   175    2
   171    34    33    1
   172   165   164    1
   173   165   173   am
   174   181   183    1
   175   181   178    1
   176   191   194    1
   177   191   190    1
   178   151   150    2
   179    27    26    2
   180   150   149    1
   181   174   175    1
   182   174   173    1
   183   175   177   am
   184   167   164    1
   185   180   179    2
   186   164   163    1
   187    20    19    1
   188    30    29    1
   189    30    31   ar
   190   152   149    1
   191    29    28    1
   192   177   178    1
   193    33    26   am
   194    26    25    1
   195   178   179    1
   196   179   185   am
   197    19    18    1
   198   149   148    1
   199    28    25    1
   200   185   186    1
   201    25    24    1
   202   186   189    1
   203   186   187    1
   204    18    17    1
   205   187   188    2
   206    17    14    1
   207    14    15    1
   208    14    13    1
   209    16    15    2
