@<TRIPOS>MOLECULE
tmp/1r9oA01.pdb
 140 128 0 0 0
SMALL
GASTEIGER

@<TRIPOS>ATOM
      1  N         18.3610   36.4060   -5.0730 N.3    78  ARG78      -0.1245
      2  CA        17.5260   35.3800   -4.4520 C.3    78  ARG78       0.1563
      3  C         17.9930   33.9870   -4.8810 C.2    78  ARG78       0.2260
      4  O         17.6010   32.9810   -4.2920 O.2    78  ARG78      -0.2867
      5  CB        16.0850   35.5580   -4.9040 C.3    78  ARG78       0.0307
      6  CG        15.4830   36.9200   -4.6060 C.3    78  ARG78       0.0489
      7  CD        15.5300   37.1530   -3.1010 C.3    78  ARG78       0.2205
      8  NE        14.5600   36.2880   -2.4450 N.pl3  78  ARG78      -0.0865
      9  CZ        14.8280   35.3090   -1.5800 C.cat  78  ARG78       0.5346
     10  NH1       16.0720   35.0030   -1.1950 N.pl3  78  ARG78       0.1354
     11  NH2       13.8140   34.6050   -1.1020 N.pl3  78  ARG78       0.1354
     12  N         14.2370   28.0730   -3.8150 N.3    83  VAL83      -0.1231
     13  CA        13.2080   28.4860   -4.7770 C.3    83  VAL83       0.1692
     14  C         13.7200   29.0370   -6.1060 C.2    83  VAL83       0.2592
     15  O         13.2690   28.6220   -7.1710 O.2    83  VAL83      -0.2718
     16  CB        12.2510   29.5280   -4.1670 C.3    83  VAL83       0.0266
     17  CG1       11.1890   29.9300   -5.1790 C.3    83  VAL83       0.0020
     18  CG2       11.6020   28.9890   -2.9090 C.3    83  VAL83       0.0020
     19  N         14.6690   29.9510   -6.0640 N.am   84  PHE84      -0.1976
     20  CA        15.1170   30.4970   -7.3140 C.3    84  PHE84       0.1639
     21  C         16.4860   30.0870   -7.7520 C.2    84  PHE84       0.2290
     22  O         17.0450   30.7450   -8.5980 O.2    84  PHE84      -0.2864
     23  CB        15.0350   32.0270   -7.2980 C.3    84  PHE84       0.0560
     24  CG        13.7150   32.5420   -6.8440 C.ar   84  PHE84      -0.0200
     25  CD1       13.5550   33.0270   -5.5430 C.ar   84  PHE84      -0.0042
     26  CD2       12.6270   32.5430   -7.7050 C.ar   84  PHE84      -0.0042
     27  CE1       12.3000   33.4870   -5.0990 C.ar   84  PHE84      -0.0003
     28  CE2       11.3750   33.0010   -7.2770 C.ar   84  PHE84      -0.0003
     29  CZ        11.2140   33.4850   -5.9780 C.ar   84  PHE84      -0.0000
     30  N          6.9700   39.6800    5.2400 N.3   171  LEU171     -0.1245
     31  CA         6.5400   38.5520    4.4160 C.3   171  LEU171      0.1561
     32  C          5.2480   38.8940    3.6770 C.2   171  LEU171      0.2260
     33  O          5.1820   38.7170    2.4730 O.2   171  LEU171     -0.2867
     34  CB         6.2590   37.3270    5.2800 C.3   171  LEU171      0.0270
     35  CG         7.4730   36.5240    5.6770 C.3   171  LEU171      0.0019
     36  CD1        7.0140   35.3250    6.4710 C.3   171  LEU171      0.0001
     37  CD2        8.2460   36.0730    4.4250 C.3   171  LEU171      0.0001
     38  N          5.8960   41.4670    0.8090 N.3   174  ASN174     -0.1225
     39  CA         6.5240   40.8750   -0.3710 C.3   174  ASN174      0.1785
     40  C          5.5870   39.9470   -1.1360 C.2   174  ASN174      0.2597
     41  O          5.5870   39.9160   -2.3640 O.2   174  ASN174     -0.2718
     42  CB         7.7780   40.0730    0.0250 C.3   174  ASN174      0.1169
     43  CG         8.9550   40.9650    0.3390 C.2   174  ASN174      0.2627
     44  OD1        8.8030   42.0040    0.9920 O.2   174  ASN174     -0.2716
     45  ND2       10.1410   40.5650   -0.1110 N.am  174  ASN174     -0.0877
     46  N          4.8100   39.1650   -0.3920 N.am  175  ILE175     -0.1980
     47  CA         3.8870   38.2120   -0.9950 C.3   175  ILE175      0.1595
     48  C          2.8020   38.9960   -1.7550 C.2   175  ILE175      0.2287
     49  O          2.4990   38.6820   -2.8970 O.2   175  ILE175     -0.2864
     50  CB         3.2820   37.2620    0.1080 C.3   175  ILE175      0.0276
     51  CG1        3.5910   35.8080   -0.2320 C.3   175  ILE175      0.0022
     52  CG2        1.8010   37.5300    0.3050 C.3   175  ILE175      0.0022
     53  CD1        5.0670   35.4630   -0.1230 C.3   175  ILE175      0.0001
     54  N          4.5550   40.3700   -4.9880 N.3   178  LEU178     -0.1245
     55  CA         4.8600   39.3110   -5.9380 C.3   178  LEU178      0.1561
     56  C          3.6490   38.5880   -6.5270 C.2   178  LEU178      0.2260
     57  O          3.7760   37.8490   -7.5100 O.2   178  LEU178     -0.2867
     58  CB         5.7670   38.2870   -5.2580 C.3   178  LEU178      0.0270
     59  CG         7.0640   38.8770   -4.7360 C.3   178  LEU178      0.0019
     60  CD1        7.6810   37.9490   -3.6820 C.3   178  LEU178      0.0001
     61  CD2        8.0060   39.1030   -5.9220 C.3   178  LEU178      0.0001
     62  N         10.3550   45.1830   -2.1780 N.3   196  LEU196     -0.1245
     63  CA        10.6910   43.7740   -2.2600 C.3   196  LEU196      0.1561
     64  C         12.1480   43.6040   -1.8450 C.2   196  LEU196      0.2260
     65  O         12.4780   42.7790   -0.9840 O.2   196  LEU196     -0.2867
     66  CB        10.5250   43.2970   -3.6970 C.3   196  LEU196      0.0270
     67  CG         9.8090   41.9760   -3.9670 C.3   196  LEU196      0.0019
     68  CD1        8.4320   41.9590   -3.2830 C.3   196  LEU196      0.0001
     69  CD2        9.6650   41.8300   -5.4680 C.3   196  LEU196      0.0001
     70  N         13.4320   41.9870    1.9570 N.3   200  VAL200     -0.1245
     71  CA        14.2600   40.7810    1.9050 C.3   200  VAL200      0.1561
     72  C         15.5740   41.0420    2.6500 C.2   200  VAL200      0.2260
     73  O         16.0830   40.1810    3.3970 O.2   200  VAL200     -0.2867
     74  CB        14.6060   40.3230    0.4460 C.3   200  VAL200      0.0252
     75  CG1       15.5970   39.1380    0.4890 C.3   200  VAL200      0.0019
     76  CG2       13.3360   39.8760   -0.2840 C.3   200  VAL200      0.0019
     77  N         14.8020   40.8610    6.2850 N.3   203  MET203     -0.1245
     78  CA        14.6500   39.4710    6.7460 C.3   203  MET203      0.1570
     79  C         15.9640   38.7130    6.8710 C.2   203  MET203      0.2261
     80  O         16.1960   38.0280    7.8840 O.2   203  MET203     -0.2867
     81  CB        13.6620   38.7090    5.8390 C.3   203  MET203      0.0387
     82  CG        12.2320   39.1940    6.0550 C.3   203  MET203      0.0595
     83  SD        10.9060   38.3670    5.0620 S.3   203  MET203     -0.1393
     84  CE        11.6010   38.5690    3.3300 C.3   203  MET203      0.0692
     85  N         15.2850   32.4550    4.2400 N.3   255  VAL255     -0.1231
     86  CA        14.2600   33.3570    3.7650 C.3   255  VAL255      0.1692
     87  C         13.2770   32.5650    2.8600 C.2   255  VAL255      0.2592
     88  O         12.0760   32.7410    2.9920 O.2   255  VAL255     -0.2718
     89  CB        14.8370   34.5820    2.9950 C.3   255  VAL255      0.0266
     90  CG1       13.7610   35.1720    2.0540 C.3   255  VAL255      0.0020
     91  CG2       15.2520   35.6410    3.9800 C.3   255  VAL255      0.0020
     92  N         13.7790   31.6880    1.9980 N.am  256  ASP256     -0.1974
     93  CA        12.8670   30.8850    1.1510 C.3   256  ASP256      0.1709
     94  C         11.8980   30.0420    1.9620 C.2   256  ASP256      0.2293
     95  O         10.7070   30.0050    1.6530 O.2   256  ASP256     -0.2864
     96  CB        13.6370   29.9530    0.2230 C.3   256  ASP256      0.1436
     97  CG        14.2440   30.6740   -0.9910 C.2   256  ASP256      0.3671
     98  OD1       15.0260   30.0370   -1.7150 O.co2 256  ASP256     -0.2456
     99  OD2       13.9340   31.8750   -1.2020 O.co2 256  ASP256     -0.2456
    100  N          9.1450   32.2310    3.3220 N.3   259  GLY259     -0.1210
    101  CA         8.2420   32.7130    2.2990 C.3   259  GLY259      0.1956
    102  C          7.3880   31.6270    1.6560 C.2   259  GLY259      0.2611
    103  O          6.2040   31.8330    1.3420 O.2   259  GLY259     -0.2717
    104  N          7.9870   30.4770    1.4430 N.am  260  ALA260     -0.1979
    105  CA         7.2720   29.4060    0.7830 C.3   260  ALA260      0.1597
    106  C          6.4010   28.6710    1.7390 C.2   260  ALA260      0.2287
    107  O          5.3820   28.1460    1.3530 O.2   260  ALA260     -0.2864
    108  CB         8.2540   28.4590    0.1850 C.3   260  ALA260      0.0319
    109  N          2.8270   31.5450    3.6710 N.3   263  GLU263     -0.1231
    110  CA         1.6160   31.9490    2.9930 C.3   263  GLU263      0.1699
    111  C          0.8200   30.8370    2.3550 C.2   263  GLU263      0.2592
    112  O         -0.4280   30.8460    2.4330 O.2   263  GLU263     -0.2718
    113  CB         1.8920   33.0330    1.9190 C.3   263  GLU263      0.0402
    114  CG         0.5970   33.7480    1.4710 C.3   263  GLU263      0.1161
    115  CD        -0.1450   34.3660    2.6480 C.2   263  GLU263      0.3649
    116  OE1       -1.4170   34.4030    2.6410 O.co2 263  GLU263     -0.2457
    117  OE2        0.5260   34.8350    3.6210 O.co2 263  GLU263     -0.2457
    118  N          1.4950   29.8920    1.7150 N.am  264  THR264     -0.1953
    119  CA         0.7620   28.7880    1.0750 C.3   264  THR264      0.1897
    120  C         -0.0550   28.0560    2.1380 C.2   264  THR264      0.2313
    121  O         -1.2500   27.8480    1.9850 O.2   264  THR264     -0.2863
    122  CB         1.7140   27.8030    0.4220 C.3   264  THR264      0.1794
    123  OG1        2.7460   27.5080    1.3460 O.3   264  THR264     -0.2208
    124  CG2        2.3170   28.3530   -0.8380 C.3   264  THR264      0.0378
    125  N         -1.9360   26.9630   -6.5210 N.3   325  LEU325     -0.1245
    126  CA        -0.9540   27.5130   -7.4540 C.3   325  LEU325      0.1561
    127  C         -1.2650   26.8680   -8.8130 C.2   325  LEU325      0.2260
    128  O         -0.6350   25.8880   -9.2290 O.2   325  LEU325     -0.2867
    129  CB         0.4360   27.1640   -6.9780 C.3   325  LEU325      0.0270
    130  CG         0.8070   27.8990   -5.6590 C.3   325  LEU325      0.0019
    131  CD1        2.0920   27.2580   -5.0540 C.3   325  LEU325      0.0001
    132  CD2        1.0100   29.4040   -5.9320 C.3   325  LEU325      0.0001
    133  N          5.1440   27.0110  -10.0050 N.3   329  LEU329     -0.1245
    134  CA         6.0810   28.1120  -10.1720 C.3   329  LEU329      0.1561
    135  C          6.6850   27.6740  -11.5450 C.2   329  LEU329      0.2260
    136  O          6.7970   26.4660  -11.8180 O.2   329  LEU329     -0.2867
    137  CB         7.2030   28.1290   -9.1200 C.3   329  LEU329      0.0270
    138  CG         6.9390   28.3940   -7.6350 C.3   329  LEU329      0.0019
    139  CD1        8.1740   29.1000   -7.0310 C.3   329  LEU329      0.0001
    140  CD2        5.6590   29.1940   -7.4210 C.3   329  LEU329      0.0001
@<TRIPOS>BOND
     1   136   135    2
     2   135   134    1
     3   134   133    1
     4   134   137    1
     5   128   127    2
     6   137   138    1
     7   127   126    1
     8    22    21    2
     9    21    20    1
    10    26    28   ar
    11    26    24   ar
    12   138   140    1
    13   138   139    1
    14    57    56    2
    15   126   129    1
    16   126   125    1
    17    20    23    1
    18    20    19    1
    19    23    24    1
    20    28    29   ar
    21    15    14    2
    22   129   130    1
    23    24    25   ar
    24    56    55    1
    25    14    19   am
    26    14    13    1
    27    29    27   ar
    28    55    58    1
    29    55    54    1
    30   132   130    1
    31    61    59    1
    32   130   131    1
    33    25    27   ar
    34    69    67    1
    35    58    59    1
    36    17    16    1
    37     1     2    1
    38     5     6    1
    39     5     2    1
    40     3     2    1
    41     3     4    2
    42    13    16    1
    43    13    12    1
    44    59    60    1
    45     6     7    1
    46    16    18    1
    47    67    66    1
    48    67    68    1
    49    66    63    1
    50     7     8    1
    51    49    48    2
    52     8     9    2
    53    41    40    2
    54    63    62    1
    55    63    64    1
    56    64    65    2
    57    48    47    1
    58    98    97   ar
    59     9    10    1
    60     9    11    1
    61    99    97   ar
    62    40    46   am
    63    40    39    1
    64    47    46    1
    65    47    50    1
    66    97    96    1
    67   124   122    1
    68    39    42    1
    69    39    38    1
    70    76    74    1
    71    51    53    1
    72    51    50    1
    73    45    43   am
    74    42    43    1
    75    50    52    1
    76   108   105    1
    77    96    93    1
    78    43    44    2
    79   122   119    1
    80   122   123    1
    81    74    75    1
    82    74    71    1
    83   105   104    1
    84   105   106    1
    85   119   118    1
    86   119   120    1
    87    93    94    1
    88    93    92    1
    89   103   102    2
    90   107   106    2
    91   104   102   am
    92   114   113    1
    93   114   115    1
    94    95    94    2
    95   102   101    1
    96   118   111   am
    97    71    70    1
    98    71    72    1
    99   113   110    1
   100   121   120    2
   101    92    87   am
   102    90    89    1
   103   101   100    1
   104   111   112    2
   105   111   110    1
   106    33    32    2
   107   116   115   ar
   108   115   117   ar
   109    72    73    2
   110    87    88    2
   111    87    86    1
   112   110   109    1
   113    89    86    1
   114    89    91    1
   115    84    83    1
   116    32    31    1
   117    86    85    1
   118    31    30    1
   119    31    34    1
   120    37    35    1
   121    83    82    1
   122    34    35    1
   123    35    36    1
   124    81    82    1
   125    81    78    1
   126    77    78    1
   127    78    79    1
   128    79    80    2
