@<TRIPOS>MOLECULE
tmp/1r9qA00.pdb
 120 120 0 0 0
SMALL
GASTEIGER

@<TRIPOS>ATOM
      1  N         27.9880   31.4230   70.9130 N.3    17  ILE17      -0.1245
      2  CA        29.1910   30.6260   70.7010 C.3    17  ILE17       0.1561
      3  C         29.7600   30.9030   69.3080 C.2    17  ILE17       0.2260
      4  O         29.2250   30.4260   68.2970 O.2    17  ILE17      -0.2867
      5  CB        28.8650   29.1100   70.8450 C.3    17  ILE17       0.0252
      6  CG1       28.3760   28.7910   72.2680 C.3    17  ILE17       0.0019
      7  CG2       30.0760   28.2670   70.4890 C.3    17  ILE17       0.0019
      8  CD1       27.8280   27.3650   72.4200 C.3    17  ILE17       0.0001
      9  N         30.3510   28.4350   66.3680 N.3    20  GLU20      -0.1245
     10  CA        29.2160   28.0270   65.5370 C.3    20  GLU20       0.1567
     11  C         29.1180   28.7950   64.2090 C.2    20  GLU20       0.2260
     12  O         28.3370   28.4190   63.3170 O.2    20  GLU20      -0.2867
     13  CB        27.9280   28.2160   66.3260 C.3    20  GLU20       0.0388
     14  CG        27.7570   27.1840   67.3980 C.3    20  GLU20       0.1160
     15  CD        26.4690   27.2770   68.1800 C.2    20  GLU20       0.3649
     16  OE1       25.7650   28.3070   68.1540 O.co2  20  GLU20      -0.2457
     17  OE2       26.1550   26.2740   68.8410 O.co2  20  GLU20      -0.2457
     18  N         19.8010   29.8190   72.6250 N.3    46  TYR46      -0.1241
     19  CA        19.1940   28.7650   71.8030 C.3    46  TYR46       0.1605
     20  C         17.6740   28.8230   71.8530 C.2    46  TYR46       0.2264
     21  O         17.0080   28.7510   70.8230 O.2    46  TYR46      -0.2867
     22  CB        19.6370   27.3780   72.2730 C.3    46  TYR46       0.0534
     23  CG        21.0810   27.0100   71.9410 C.ar   46  TYR46      -0.0201
     24  CD1       21.9750   26.6730   72.9480 C.ar   46  TYR46      -0.0009
     25  CD2       21.5450   26.9950   70.6150 C.ar   46  TYR46      -0.0009
     26  CE1       23.2940   26.3170   72.6640 C.ar   46  TYR46       0.0417
     27  CE2       22.8760   26.6380   70.3160 C.ar   46  TYR46       0.0417
     28  CZ        23.7420   26.3030   71.3490 C.ar   46  TYR46       0.1957
     29  OH        25.0470   25.9410   71.0930 O.3    46  TYR46      -0.2866
     30  N         21.0550   20.5970   67.9830 N.3    65  TRP65      -0.1241
     31  CA        21.6660   19.3850   68.5030 C.3    65  TRP65       0.1605
     32  C         20.6090   18.3380   68.8990 C.2    65  TRP65       0.2264
     33  O         19.5730   18.6810   69.4920 O.2    65  TRP65      -0.2867
     34  CB        22.4890   19.7200   69.7400 C.3    65  TRP65       0.0550
     35  CG        23.8510   20.3150   69.4990 C.ar   65  TRP65       0.0003
     36  CD1       24.1380   21.6070   69.1730 C.ar   65  TRP65       0.0946
     37  CD2       25.1070   19.6470   69.6270 C.ar   65  TRP65       0.0152
     38  NE1       25.5010   21.7860   69.0720 N.ar   65  TRP65      -0.2442
     39  CE2       26.1210   20.5960   69.3480 C.ar   65  TRP65       0.0810
     40  CE3       25.4880   18.3360   69.9450 C.ar   65  TRP65       0.0012
     41  CZ2       27.4750   20.2710   69.3660 C.ar   65  TRP65       0.0191
     42  CZ3       26.8260   18.0240   69.9820 C.ar   65  TRP65       0.0001
     43  CH2       27.8110   18.9950   69.6910 C.ar   65  TRP65       0.0015
     44  N         20.4030   16.9100   72.7980 N.3    68  LEU68      -0.1231
     45  CA        20.4600   17.9700   73.8010 C.3    68  LEU68       0.1693
     46  C         19.4270   19.0800   73.6200 C.2    68  LEU68       0.2592
     47  O         19.0860   19.7440   74.5960 O.2    68  LEU68      -0.2718
     48  CB        21.8560   18.6050   73.8520 C.3    68  LEU68       0.0284
     49  CG        22.9290   17.8760   74.6680 C.3    68  LEU68       0.0019
     50  CD1       24.1260   18.7740   74.8660 C.3    68  LEU68       0.0001
     51  CD2       22.4040   17.4000   76.0060 C.3    68  LEU68       0.0001
     52  N         18.9570   19.2970   72.3880 N.am   69  HIS69      -0.1976
     53  CA        17.9560   20.3300   72.0960 C.3    69  HIS69       0.1656
     54  C         16.5050   19.7800   71.9710 C.2    69  HIS69       0.2291
     55  O         15.5900   20.5480   71.7320 O.2    69  HIS69      -0.2864
     56  CB        18.3520   21.1130   70.8300 C.3    69  HIS69       0.0771
     57  CG        19.5600   21.9910   71.0070 C.ar   69  HIS69       0.0820
     58  ND1       19.7260   23.1760   70.3230 N.ar   69  HIS69      -0.2267
     59  CD2       20.6470   21.8740   71.8110 C.ar   69  HIS69       0.1154
     60  CE1       20.8500   23.7540   70.7020 C.ar   69  HIS69       0.1986
     61  NE2       21.4300   22.9890   71.6050 N.ar   69  HIS69      -0.2212
     62  N         30.4340   14.0530   73.6080 N.3    94  GLN94      -0.1245
     63  CA        30.4400   14.9020   74.8030 C.3    94  GLN94       0.1566
     64  C         30.5650   14.0200   76.0480 C.2    94  GLN94       0.2260
     65  O         30.4270   12.7870   75.9780 O.2    94  GLN94      -0.2867
     66  CB        29.1850   15.7910   74.8670 C.3    94  GLN94       0.0367
     67  CG        27.9110   15.0460   74.6320 C.3    94  GLN94       0.0905
     68  CD        26.6790   15.9230   74.4570 C.2    94  GLN94       0.2608
     69  OE1       25.8450   15.6400   73.6060 O.2    94  GLN94      -0.2717
     70  NE2       26.5210   16.9130   75.3030 N.am   94  GLN94      -0.0878
     71  N         22.0450   26.5570   77.8220 N.3   140  TRP140     -0.1227
     72  CA        22.5750   25.4720   77.0060 C.3   140  TRP140      0.1737
     73  C         21.8300   24.1910   77.3320 C.2   140  TRP140      0.2596
     74  O         21.4220   23.9760   78.4740 O.2   140  TRP140     -0.2718
     75  CB        24.0710   25.2860   77.2530 C.3   140  TRP140      0.0564
     76  CG        24.9140   26.3980   76.6980 C.ar  140  TRP140      0.0003
     77  CD1       24.4840   27.5250   76.0580 C.ar  140  TRP140      0.0946
     78  CD2       26.3310   26.4600   76.7040 C.ar  140  TRP140      0.0152
     79  NE1       25.5540   28.3020   75.6960 N.ar  140  TRP140     -0.2442
     80  CE2       26.7040   27.6660   76.0700 C.ar  140  TRP140      0.0810
     81  CE3       27.3370   25.6210   77.1970 C.ar  140  TRP140      0.0012
     82  CZ2       28.0210   28.0500   75.9080 C.ar  140  TRP140      0.0191
     83  CZ3       28.6660   26.0070   77.0340 C.ar  140  TRP140      0.0001
     84  CH2       28.9930   27.2180   76.3970 C.ar  140  TRP140      0.0015
     85  N         21.6420   23.3500   76.3200 N.am  141  GLY141     -0.1942
     86  CA        21.0270   22.0550   76.4870 C.3   141  GLY141      0.2014
     87  C         21.7560   21.1850   77.4850 C.2   141  GLY141      0.2639
     88  O         21.1280   20.4240   78.2160 O.2   141  GLY141     -0.2714
     89  N         23.0790   21.3160   77.5490 N.am  142  CYS142     -0.1967
     90  CA        23.8740   20.5230   78.4760 C.3   142  CYS142      0.1712
     91  C         23.6910   20.9560   79.9270 C.2   142  CYS142      0.2296
     92  O         23.9770   20.1910   80.8310 O.2   142  CYS142     -0.2864
     93  CB        25.3480   20.5110   78.0820 C.3   142  CYS142      0.0983
     94  SG        26.1270   22.1250   77.9270 S.3   142  CYS142     -0.0798
     95  N         33.0880   19.1650   81.9230 N.3   186  TYR186     -0.1241
     96  CA        32.3380   18.6660   80.7780 C.3   186  TYR186      0.1605
     97  C         32.8630   19.3580   79.5230 C.2   186  TYR186      0.2264
     98  O         33.2190   20.5390   79.5550 O.2   186  TYR186     -0.2867
     99  CB        30.8500   18.9890   80.9540 C.3   186  TYR186      0.0534
    100  CG        30.0050   18.9710   79.6910 C.ar  186  TYR186     -0.0201
    101  CD1       29.3220   17.8250   79.3240 C.ar  186  TYR186     -0.0009
    102  CD2       29.8570   20.1110   78.8880 C.ar  186  TYR186     -0.0009
    103  CE1       28.5610   17.7770   78.1900 C.ar  186  TYR186      0.0417
    104  CE2       29.0860   20.0730   77.7230 C.ar  186  TYR186      0.0417
    105  CZ        28.4280   18.8930   77.4030 C.ar  186  TYR186      0.1957
    106  OH        27.6480   18.7800   76.2950 O.3   186  TYR186     -0.2866
    107  N         32.5030   19.0480   74.8220 N.3   188  TRP188     -0.1241
    108  CA        31.9800   18.4160   73.6270 C.3   188  TRP188      0.1605
    109  C         32.9270   18.6480   72.4590 C.2   188  TRP188      0.2264
    110  O         33.7870   19.5370   72.4940 O.2   188  TRP188     -0.2867
    111  CB        30.6010   18.9800   73.2770 C.3   188  TRP188      0.0550
    112  CG        30.6580   20.4390   72.8480 C.ar  188  TRP188      0.0003
    113  CD1       30.6380   20.9280   71.5800 C.ar  188  TRP188      0.0946
    114  CD2       30.7340   21.5670   73.7060 C.ar  188  TRP188      0.0152
    115  NE1       30.7230   22.3040   71.5920 N.ar  188  TRP188     -0.2442
    116  CE2       30.7700   22.7200   72.8950 C.ar  188  TRP188      0.0810
    117  CE3       30.7900   21.7260   75.0930 C.ar  188  TRP188      0.0012
    118  CZ2       30.8620   24.0050   73.4250 C.ar  188  TRP188      0.0191
    119  CZ3       30.8680   23.0010   75.6160 C.ar  188  TRP188      0.0001
    120  CH2       30.8980   24.1270   74.7810 C.ar  188  TRP188      0.0015
@<TRIPOS>BOND
     1    12    11    2
     2    11    10    1
     3    10    13    1
     4    10     9    1
     5    13    14    1
     6    14    15    1
     7    30    31    1
     8    16    15   ar
     9    15    17   ar
    10     4     3    2
    11    31    32    1
    12    31    34    1
    13    32    33    2
    14    38    36   ar
    15    38    39   ar
    16    36    35   ar
    17     3     2    1
    18    39    41   ar
    19    39    37   ar
    20    41    43   ar
    21    35    37   ar
    22    35    34    1
    23    37    40   ar
    24    43    42   ar
    25    40    42   ar
    26    27    25   ar
    27    27    28   ar
    28    58    60   ar
    29    58    57   ar
    30     7     5    1
    31    25    23   ar
    32     2     5    1
    33     2     1    1
    34    60    61   ar
    35    21    20    2
    36    56    57    1
    37    56    53    1
    38     5     6    1
    39    57    59   ar
    40    29    28    1
    41    28    26   ar
    42   113   115   ar
    43   113   112   ar
    44   115   116   ar
    45    61    59   ar
    46    55    54    2
    47    19    20    1
    48    19    22    1
    49    19    18    1
    50    23    22    1
    51    23    24   ar
    52    54    53    1
    53    53    52    1
    54     6     8    1
    55    52    46   am
    56   109   110    2
    57   109   108    1
    58    26    24   ar
    59    44    45    1
    60   112   111    1
    61   112   114   ar
    62   116   118   ar
    63   116   114   ar
    64   111   108    1
    65   118   120   ar
    66    69    68    2
    67    62    63    1
    68    46    45    1
    69    46    47    2
    70   108   107    1
    71   114   117   ar
    72    45    48    1
    73    48    49    1
    74    68    67    1
    75    68    70   am
    76    67    66    1
    77    49    50    1
    78    49    51    1
    79   120   119   ar
    80    63    66    1
    81    63    64    1
    82   117   119   ar
    83    79    77   ar
    84    79    80   ar
    85    82    80   ar
    86    82    84   ar
    87    65    64    2
    88    77    76   ar
    89    80    78   ar
    90   106   105    1
    91    85    86    1
    92    85    73   am
    93    84    83   ar
    94    86    87    1
    95    76    78   ar
    96    76    75    1
    97    78    81   ar
    98    72    75    1
    99    72    73    1
   100    72    71    1
   101    83    81   ar
   102    73    74    2
   103   105   104   ar
   104   105   103   ar
   105    87    89   am
   106    87    88    2
   107    89    90    1
   108   104   102   ar
   109    94    93    1
   110    93    90    1
   111   103   101   ar
   112    90    91    1
   113   102   100   ar
   114   101   100   ar
   115    97    98    2
   116    97    96    1
   117   100    99    1
   118    91    92    2
   119    96    99    1
   120    96    95    1
