@<TRIPOS>MOLECULE
tmp/1ra5A00.pdb
 118 112 0 0 0
SMALL
GASTEIGER

@<TRIPOS>ATOM
      1  N         10.0690   29.0200  101.9030 N.3    60  HIS60      -0.1241
      2  CA         8.9940   29.4640  101.0180 C.3    60  HIS60       0.1621
      3  C          8.9560   30.9930  101.0600 C.2    60  HIS60       0.2264
      4  O          8.3020   31.5990  101.9140 O.2    60  HIS60      -0.2867
      5  CB         7.6580   28.8740  101.4830 C.3    60  HIS60       0.0745
      6  CG         7.5880   27.3810  101.3740 C.ar   60  HIS60       0.0817
      7  ND1        6.9150   26.7360  100.3570 N.ar   60  HIS60      -0.2268
      8  CD2        8.1250   26.4050  102.1440 C.ar   60  HIS60       0.1154
      9  CE1        7.0390   25.4300  100.5060 C.ar   60  HIS60       0.1986
     10  NE2        7.7700   25.2010  101.5840 N.ar   60  HIS60      -0.2212
     11  N         -0.3840   20.9040  108.5980 N.3    78  LEU78      -0.1245
     12  CA         0.0250   21.1210  107.2140 C.3    78  LEU78       0.1561
     13  C         -1.2050   21.3750  106.3500 C.2    78  LEU78       0.2260
     14  O         -1.2290   22.2970  105.5290 O.2    78  LEU78      -0.2867
     15  CB         0.7550   19.8800  106.6840 C.3    78  LEU78       0.0270
     16  CG         0.9690   19.8300  105.1660 C.3    78  LEU78       0.0019
     17  CD1        2.0120   20.8680  104.7620 C.3    78  LEU78       0.0001
     18  CD2        1.4280   18.4480  104.7450 C.3    78  LEU78       0.0001
     19  N         -2.2020   24.7210  104.1230 N.3    82  ILE82      -0.1245
     20  CA        -2.4010   24.8290  102.6790 C.3    82  ILE82       0.1561
     21  C         -3.7140   25.5620  102.3760 C.2    82  ILE82       0.2260
     22  O         -3.7870   26.3470  101.4270 O.2    82  ILE82      -0.2867
     23  CB        -2.3890   23.4270  102.0120 C.3    82  ILE82       0.0252
     24  CG1       -0.9520   22.9060  101.9180 C.3    82  ILE82       0.0019
     25  CG2       -2.9230   23.5080  100.5820 C.3    82  ILE82       0.0019
     26  CD1       -0.2190   22.8090  103.2090 C.3    82  ILE82       0.0001
     27  N          7.0450   24.4790   92.7240 N.3   151  PHE151     -0.1241
     28  CA         6.3650   23.6240   93.6890 C.3   151  PHE151      0.1605
     29  C          4.8650   23.5660   93.4340 C.2   151  PHE151      0.2264
     30  O          4.1530   24.5260   93.6680 O.2   151  PHE151     -0.2867
     31  CB         6.6800   24.1790   95.0900 C.3   151  PHE151      0.0534
     32  CG         5.9270   23.5220   96.2080 C.ar  151  PHE151     -0.0203
     33  CD1        5.8480   22.1360   96.3060 C.ar  151  PHE151     -0.0042
     34  CD2        5.3350   24.3020   97.1940 C.ar  151  PHE151     -0.0042
     35  CE1        5.1830   21.5360   97.3810 C.ar  151  PHE151     -0.0003
     36  CE2        4.6750   23.7160   98.2680 C.ar  151  PHE151     -0.0003
     37  CZ         4.6000   22.3260   98.3560 C.ar  151  PHE151     -0.0000
     38  N          2.0430   22.9880   94.8330 N.3   153  GLN153     -0.1245
     39  CA         1.4650   22.8400   96.1680 C.3   153  GLN153      0.1566
     40  C          0.1690   22.0610   96.2660 C.2   153  GLN153      0.2260
     41  O         -0.0570   21.3600   97.2560 O.2   153  GLN153     -0.2867
     42  CB         1.2770   24.2280   96.8030 C.3   153  GLN153      0.0367
     43  CG         0.5590   24.2280   98.1580 C.3   153  GLN153      0.0905
     44  CD         1.4380   23.7660   99.3090 C.2   153  GLN153      0.2608
     45  OE1        2.1110   24.5700   99.9700 O.2   153  GLN153     -0.2717
     46  NE2        1.4440   22.4610   99.5520 N.am  153  GLN153     -0.0878
     47  N          4.5150   16.7930   95.3700 N.3   180  ILE180     -0.1245
     48  CA         3.9610   16.6210   96.7240 C.3   180  ILE180      0.1561
     49  C          3.0440   15.3810   96.6540 C.2   180  ILE180      0.2260
     50  O          1.8200   15.4520   96.8210 O.2   180  ILE180     -0.2867
     51  CB         3.2110   17.9180   97.1430 C.3   180  ILE180      0.0252
     52  CG1        2.7770   17.8080   98.6080 C.3   180  ILE180      0.0019
     53  CG2        2.0590   18.2290   96.1700 C.3   180  ILE180      0.0019
     54  CD1        2.1620   19.0990   99.1520 C.3   180  ILE180      0.0001
     55  N          8.4510   17.5300   98.0620 N.3   211  HIS211     -0.1241
     56  CA         7.8980   17.6280   99.4300 C.3   211  HIS211      0.1621
     57  C          7.4120   16.1800   99.5610 C.2   211  HIS211      0.2264
     58  O          6.3550   15.8060   99.0410 O.2   211  HIS211     -0.2867
     59  CB         6.7350   18.6120   99.4790 C.3   211  HIS211      0.0745
     60  CG         7.1410   20.0040   99.8450 C.ar  211  HIS211      0.0817
     61  ND1        7.8980   20.8050   99.0140 N.ar  211  HIS211     -0.2268
     62  CD2        6.9140   20.7320  100.9650 C.ar  211  HIS211      0.1154
     63  CE1        8.1170   21.9660   99.6060 C.ar  211  HIS211      0.1986
     64  NE2        7.5330   21.9480  100.7930 N.ar  211  HIS211     -0.2212
     65  N          5.2980   14.2810  103.8640 N.3   214  GLU214     -0.1245
     66  CA         5.2330   15.2120  105.0030 C.3   214  GLU214      0.1567
     67  C          3.8830   14.9630  105.6740 C.2   214  GLU214      0.2260
     68  O          2.9350   15.7500  105.5630 O.2   214  GLU214     -0.2867
     69  CB         5.3480   16.6780  104.5520 C.3   214  GLU214      0.0388
     70  CG         5.4820   17.6420  105.7480 C.3   214  GLU214      0.1160
     71  CD         5.4010   19.1180  105.3900 C.2   214  GLU214      0.3649
     72  OE1        5.1930   19.4560  104.2010 O.co2 214  GLU214     -0.2457
     73  OE2        5.5460   19.9640  106.3090 O.co2 214  GLU214     -0.2457
     74  N         11.4940   16.8580  103.8850 N.3   243  HIS243     -0.1241
     75  CA        10.6700   16.4220  105.0040 C.3   243  HIS243      0.1621
     76  C         10.7620   14.9580  105.4140 C.2   243  HIS243      0.2264
     77  O         11.3610   14.6520  106.4510 O.2   243  HIS243     -0.2867
     78  CB         9.1950   16.7890  104.7780 C.3   243  HIS243      0.0745
     79  CG         8.9190   18.2600  104.8460 C.ar  243  HIS243      0.0817
     80  ND1        9.1080   19.0020  105.9940 N.ar  243  HIS243     -0.2268
     81  CD2        8.4300   19.1170  103.9200 C.ar  243  HIS243      0.1154
     82  CE1        8.7380   20.2510  105.7720 C.ar  243  HIS243      0.1986
     83  NE2        8.3240   20.3490  104.5210 N.ar  243  HIS243     -0.2212
     84  N          4.1820   21.2090  113.1670 N.3   279  LEU279     -0.1245
     85  CA         3.1080   20.5930  112.3720 C.3   279  LEU279      0.1561
     86  C          2.9040   19.1040  112.5270 C.2   279  LEU279      0.2260
     87  O          1.8270   18.5940  112.2090 O.2   279  LEU279     -0.2867
     88  CB         3.3210   20.8370  110.8830 C.3   279  LEU279      0.0270
     89  CG         3.4830   22.2520  110.3700 C.3   279  LEU279      0.0019
     90  CD1        3.5870   22.1910  108.8450 C.3   279  LEU279      0.0001
     91  CD2        2.3120   23.1130  110.8320 C.3   279  LEU279      0.0001
     92  N         12.3590   26.2780  106.4060 N.3   310  ASP310     -0.1225
     93  CA        11.0740   26.0360  105.7530 C.3   310  ASP310      0.1805
     94  C         10.1690   27.2660  105.6490 C.2   310  ASP310      0.2597
     95  O          9.8730   27.7230  104.5460 O.2   310  ASP310     -0.2718
     96  CB        10.3310   24.8830  106.4510 C.3   310  ASP310      0.1424
     97  CG         9.2330   24.2720  105.5820 C.2   310  ASP310      0.3668
     98  OD1        8.5480   23.3510  106.0720 O.co2 310  ASP310     -0.2456
     99  OD2        9.0620   24.6910  104.4140 O.co2 310  ASP310     -0.2456
    100  N          9.7450   27.8160  106.7740 N.am  311  ALA311     -0.1979
    101  CA         8.8440   28.9500  106.7540 C.3   311  ALA311      0.1597
    102  C          9.2470   30.0180  107.7580 C.2   311  ALA311      0.2287
    103  O          9.7740   29.7130  108.8350 O.2   311  ALA311     -0.2864
    104  CB         7.4250   28.4660  107.0600 C.3   311  ALA311      0.0319
    105  N          2.3850   28.0960  107.8470 N.3   316  TRP316     -0.1241
    106  CA         2.9520   26.9340  108.4930 C.3   316  TRP316      0.1605
    107  C          3.8870   27.2390  109.6630 C.2   316  TRP316      0.2264
    108  O          4.3480   26.2990  110.3100 O.2   316  TRP316     -0.2867
    109  CB         3.6780   26.0840  107.4460 C.3   316  TRP316      0.0550
    110  CG         2.7830   25.6770  106.3190 C.ar  316  TRP316      0.0003
    111  CD1        1.9180   24.6190  106.2950 C.ar  316  TRP316      0.0946
    112  CD2        2.6250   26.3560  105.0670 C.ar  316  TRP316      0.0152
    113  NE1        1.2280   24.5980  105.1000 N.ar  316  TRP316     -0.2442
    114  CE2        1.6430   25.6530  104.3300 C.ar  316  TRP316      0.0810
    115  CE3        3.2220   27.4910  104.4930 C.ar  316  TRP316      0.0012
    116  CZ2        1.2400   26.0490  103.0490 C.ar  316  TRP316      0.0191
    117  CZ3        2.8230   27.8820  103.2180 C.ar  316  TRP316      0.0001
    118  CH2        1.8390   27.1610  102.5130 C.ar  316  TRP316      0.0015
@<TRIPOS>BOND
     1    27    28    1
     2    29    30    2
     3    29    28    1
     4    28    31    1
     5    38    39    1
     6    31    32    1
     7    47    48    1
     8    39    40    1
     9    39    42    1
    10    53    51    1
    11    32    33   ar
    12    32    34   ar
    13    40    41    2
    14    33    35   ar
    15    49    48    1
    16    49    50    2
    17    48    51    1
    18    42    43    1
    19    51    52    1
    20    34    36   ar
    21    35    37   ar
    22    55    56    1
    23    43    44    1
    24    36    37   ar
    25    52    54    1
    26    61    63   ar
    27    61    60   ar
    28    58    57    2
    29    44    46   am
    30    44    45    2
    31    56    59    1
    32    56    57    1
    33    59    60    1
    34    63    64   ar
    35    60    62   ar
    36     7     9   ar
    37     7     6   ar
    38     9    10   ar
    39    25    23    1
    40    64    62   ar
    41     2     3    1
    42     2     5    1
    43     2     1    1
    44     3     4    2
    45     6     5    1
    46     6     8   ar
    47    22    21    2
    48    10     8   ar
    49    24    23    1
    50    24    26    1
    51    23    20    1
    52    21    20    1
    53   118   116   ar
    54   118   117   ar
    55    20    19    1
    56   116   114   ar
    57   117   115   ar
    58    65    66    1
    59    74    75    1
    60    81    83   ar
    61    81    79   ar
    62    72    71   ar
    63   114   112   ar
    64   114   113   ar
    65    99    97   ar
    66   115   112   ar
    67    83    82   ar
    68    95    94    2
    69    69    66    1
    70    69    70    1
    71    18    16    1
    72    17    16    1
    73    78    79    1
    74    78    75    1
    75    79    80   ar
    76    66    67    1
    77    75    76    1
    78   112   110   ar
    79   113   111   ar
    80    16    15    1
    81    71    70    1
    82    71    73   ar
    83    76    77    2
    84    14    13    2
    85    68    67    2
    86    97    98   ar
    87    97    96    1
    88    94    93    1
    89    94   100   am
    90    93    92    1
    91    93    96    1
    92    82    80   ar
    93   111   110   ar
    94   110   109    1
    95    13    12    1
    96    15    12    1
    97   101   100    1
    98   101   104    1
    99   101   102    1
   100    12    11    1
   101   109   106    1
   102   102   103    2
   103   105   106    1
   104   106   107    1
   105    90    89    1
   106   107   108    2
   107    89    91    1
   108    89    88    1
   109    88    85    1
   110    87    86    2
   111    85    86    1
   112    85    84    1
