@<TRIPOS>MOLECULE
tmp/1ra7A00.pdb
 160 151 0 0 0
SMALL
GASTEIGER

@<TRIPOS>ATOM
      1  N        220.7800   68.8600   13.1370 N.3    61  LYS61      -0.1245
      2  CA       220.1410   67.9070   12.2390 C.3    61  LYS61       0.1561
      3  C        219.5580   66.7300   13.0280 C.2    61  LYS61       0.2260
      4  O        218.6290   66.0730   12.5710 O.2    61  LYS61      -0.2867
      5  CB       221.1430   67.3930   11.2130 C.3    61  LYS61       0.0271
      6  CG       222.3210   66.6930   11.8250 C.3    61  LYS61       0.0035
      7  CD       223.1730   66.0430   10.7590 C.3    61  LYS61       0.0206
      8  CE       224.3660   65.3470   11.3710 C.3    61  LYS61       0.1093
      9  NZ       225.1420   64.5850   10.3610 N.3    61  LYS61      -0.1314
     10  N        232.1790   68.9920    5.9990 N.3   158  LYS158     -0.1245
     11  CA       232.4040   68.7900    4.5750 C.3   158  LYS158      0.1561
     12  C        232.7560   70.1040    3.8880 C.2   158  LYS158      0.2260
     13  O        231.9920   71.0730    3.9460 O.2   158  LYS158     -0.2867
     14  CB       231.1650   68.1690    3.9200 C.3   158  LYS158      0.0271
     15  CG       231.3730   67.7640    2.4740 C.3   158  LYS158      0.0035
     16  CD       230.1880   66.9800    1.9530 C.3   158  LYS158      0.0206
     17  CE       230.4750   66.4260    0.5800 C.3   158  LYS158      0.1093
     18  NZ       229.3610   65.5640    0.1260 N.3   158  LYS158     -0.1314
     19  N        227.8800   75.9570   -0.4880 N.3   162  ARG162     -0.1245
     20  CA       226.5710   76.0050    0.1450 C.3   162  ARG162      0.1563
     21  C        225.9170   77.3480   -0.1340 C.2   162  ARG162      0.2260
     22  O        226.6070   78.3340   -0.3850 O.2   162  ARG162     -0.2867
     23  CB       226.7210   75.8080    1.6520 C.3   162  ARG162      0.0307
     24  CG       227.4090   74.4970    2.0210 C.3   162  ARG162      0.0489
     25  CD       226.4890   73.3040    1.8100 C.3   162  ARG162      0.2205
     26  NE       225.5010   73.2060    2.8760 N.pl3 162  ARG162     -0.0865
     27  CZ       224.5190   72.3140    2.9080 C.cat 162  ARG162      0.5346
     28  NH1      224.3840   71.4350    1.9200 N.pl3 162  ARG162      0.1354
     29  NH2      223.6740   72.2950    3.9310 N.pl3 162  ARG162      0.1354
     30  N        222.6430   78.7410    4.1140 N.3   166  LYS166     -0.1245
     31  CA       223.3040   77.6300    4.7990 C.3   166  LYS166      0.1561
     32  C        224.6190   78.0860    5.4370 C.2   166  LYS166      0.2260
     33  O        225.0830   77.4930    6.4090 O.2   166  LYS166     -0.2867
     34  CB       223.5910   76.4860    3.8210 C.3   166  LYS166      0.0271
     35  CG       222.3620   75.8780    3.1550 C.3   166  LYS166      0.0035
     36  CD       221.5570   75.0200    4.1070 C.3   166  LYS166      0.0206
     37  CE       220.4340   74.2980    3.3770 C.3   166  LYS166      0.1093
     38  NZ       219.6940   73.3870    4.3000 N.3   166  LYS166     -0.1314
     39  N        224.6730   75.9060    8.7330 N.3   171  LYS171     -0.1245
     40  CA       224.2190   74.6030    8.2720 C.3   171  LYS171      0.1561
     41  C        225.2550   73.8970    7.4000 C.2   171  LYS171      0.2260
     42  O        225.0300   73.6690    6.2170 O.2   171  LYS171     -0.2867
     43  CB       222.9150   74.7560    7.4880 C.3   171  LYS171      0.0271
     44  CG       221.7300   75.2350    8.3090 C.3   171  LYS171      0.0035
     45  CD       221.1760   74.1250    9.1860 C.3   171  LYS171      0.0206
     46  CE       219.8850   74.5580    9.8740 C.3   171  LYS171      0.1093
     47  NZ       219.2890   73.4550   10.6850 N.3   171  LYS171     -0.1314
     48  N        227.3960   70.5980    6.3190 N.3   173  ARG173     -0.1231
     49  CA       227.2000   69.1620    6.3880 C.3   173  ARG173      0.1694
     50  C        228.4340   68.4810    6.9640 C.2   173  ARG173      0.2592
     51  O        229.5520   68.9780    6.8120 O.2   173  ARG173     -0.2718
     52  CB       226.8560   68.6050    5.0020 C.3   173  ARG173      0.0321
     53  CG       225.5780   69.2190    4.4250 C.3   173  ARG173      0.0489
     54  CD       224.9730   68.3800    3.3070 C.3   173  ARG173      0.2205
     55  NE       225.9340   68.1260    2.2480 N.pl3 173  ARG173     -0.0865
     56  CZ       225.6440   67.5320    1.0940 C.cat 173  ARG173      0.5346
     57  NH1      224.4080   67.1190    0.8360 N.pl3 173  ARG173      0.1354
     58  NH2      226.5970   67.3590    0.1860 N.pl3 173  ARG173      0.1354
     59  N        228.2230   67.3460    7.6280 N.am  174  LEU174     -0.1966
     60  CA       229.3090   66.6080    8.2540 C.3   174  LEU174      0.1728
     61  C        229.6170   65.2840    7.5710 C.2   174  LEU174      0.2616
     62  O        228.7590   64.6760    6.9430 O.2   174  LEU174     -0.2715
     63  CB       228.9730   66.3500    9.7260 C.3   174  LEU174      0.0311
     64  CG       228.6910   67.5980   10.5690 C.3   174  LEU174      0.0022
     65  CD1      228.2490   67.1970   11.9670 C.3   174  LEU174      0.0001
     66  CD2      229.9410   68.4530   10.6300 C.3   174  LEU174      0.0001
     67  N        230.8620   64.8510    7.6830 N.am  175  ILE175     -0.1977
     68  CA       231.2800   63.5890    7.1110 C.3   175  ILE175      0.1596
     69  C        231.6610   62.6980    8.2820 C.2   175  ILE175      0.2287
     70  O        232.6990   62.8900    8.9050 O.2   175  ILE175     -0.2864
     71  CB       232.5030   63.7460    6.1850 C.3   175  ILE175      0.0276
     72  CG1      232.0790   64.4180    4.8770 C.3   175  ILE175      0.0022
     73  CG2      233.1310   62.3780    5.9080 C.3   175  ILE175      0.0022
     74  CD1      233.2060   64.5610    3.8720 C.3   175  ILE175      0.0001
     75  N        210.5780   65.8210   -1.0390 N.3   231  ASP231     -0.1225
     76  CA       211.9290   65.8980   -0.5190 C.3   231  ASP231      0.1805
     77  C        211.9090   65.6820    0.9760 C.2   231  ASP231      0.2598
     78  O        210.8860   65.8920    1.6350 O.2   231  ASP231     -0.2718
     79  CB       212.5540   67.2570   -0.8000 C.3   231  ASP231      0.1424
     80  CG       212.7350   67.5210   -2.2710 C.2   231  ASP231      0.3668
     81  OD1      212.8870   66.5520   -3.0610 O.co2 231  ASP231     -0.2456
     82  OD2      212.7440   68.7160   -2.6280 O.co2 231  ASP231     -0.2456
     83  N        213.0490   65.2590    1.5030 N.am  232  TYR232     -0.1962
     84  CA       213.2020   65.0380    2.9260 C.3   232  TYR232      0.1771
     85  C        214.1300   66.1010    3.4560 C.2   232  TYR232      0.2620
     86  O        215.0390   66.5470    2.7480 O.2   232  TYR232     -0.2715
     87  CB       213.8760   63.7080    3.2190 C.3   232  TYR232      0.0574
     88  CG       213.0720   62.4770    2.9620 C.ar  232  TYR232     -0.0198
     89  CD1      213.2450   61.7510    1.7890 C.ar  232  TYR232     -0.0009
     90  CD2      212.2030   61.9720    3.9380 C.ar  232  TYR232     -0.0009
     91  CE1      212.5950   60.5550    1.5930 C.ar  232  TYR232      0.0417
     92  CE2      211.5380   60.7640    3.7490 C.ar  232  TYR232      0.0417
     93  CZ       211.7490   60.0620    2.5760 C.ar  232  TYR232      0.1957
     94  OH       211.1770   58.8340    2.3940 O.3   232  TYR232     -0.2866
     95  N        213.9120   66.4990    4.7020 N.am  233  THR233     -0.1937
     96  CA       214.8030   67.4600    5.3370 C.3   233  THR233      0.2028
     97  C        215.5440   66.6570    6.3960 C.2   233  THR233      0.2643
     98  O        214.9300   66.1290    7.3220 O.2   233  THR233     -0.2714
     99  CB       214.0480   68.6100    6.0230 C.3   233  THR233      0.1808
    100  OG1      213.4320   69.4400    5.0290 O.3   233  THR233     -0.2208
    101  CG2      215.0170   69.4550    6.8400 C.3   233  THR233      0.0379
    102  N        216.8610   66.5520    6.2400 N.am  234  GLY234     -0.1939
    103  CA       217.6750   65.8130    7.1860 C.3   234  GLY234      0.2014
    104  C        217.2670   64.3620    7.2780 C.2   234  GLY234      0.2639
    105  O        217.1100   63.8250    8.3650 O.2   234  GLY234     -0.2714
    106  N        217.0840   63.7260    6.1320 N.am  235  TYR235     -0.1959
    107  CA       216.6880   62.3280    6.1070 C.3   235  TYR235      0.1771
    108  C        217.5700   61.4700    7.0120 C.2   235  TYR235      0.2620
    109  O        217.0910   60.8850    7.9890 O.2   235  TYR235     -0.2715
    110  CB       216.7650   61.7940    4.6770 C.3   235  TYR235      0.0574
    111  CG       216.4380   60.3220    4.5110 C.ar  235  TYR235     -0.0198
    112  CD1      215.1270   59.8920    4.2570 C.ar  235  TYR235     -0.0009
    113  CD2      217.4540   59.3660    4.5250 C.ar  235  TYR235     -0.0009
    114  CE1      214.8540   58.5540    4.0070 C.ar  235  TYR235      0.0417
    115  CE2      217.1940   58.0310    4.2870 C.ar  235  TYR235      0.0417
    116  CZ       215.8950   57.6250    4.0210 C.ar  235  TYR235      0.1957
    117  OH       215.6740   56.2960    3.7320 O.3   235  TYR235     -0.2866
    118  N        218.8500   61.4080    6.6670 N.am  236  ASP236     -0.1957
    119  CA       219.8330   60.6030    7.3840 C.3   236  ASP236      0.1840
    120  C        219.7850   60.7480    8.8960 C.2   236  ASP236      0.2621
    121  O        219.6530   59.7610    9.6260 O.2   236  ASP236     -0.2715
    122  CB       221.2450   60.9490    6.8980 C.3   236  ASP236      0.1450
    123  CG       221.4920   60.5140    5.4800 C.2   236  ASP236      0.3671
    124  OD1      220.5620   60.6340    4.6580 O.co2 236  ASP236     -0.2456
    125  OD2      222.6170   60.0640    5.1760 O.co2 236  ASP236     -0.2456
    126  N        219.8880   61.9890    9.3530 N.am  237  ALA237     -0.1977
    127  CA       219.9000   62.2960   10.7730 C.3   237  ALA237      0.1597
    128  C        218.5640   62.0710   11.4710 C.2   237  ALA237      0.2287
    129  O        218.5290   61.8550   12.6810 O.2   237  ALA237     -0.2864
    130  CB       220.3570   63.7500   10.9840 C.3   237  ALA237      0.0319
    131  N        226.9460   59.4330    7.5980 N.3   285  SER285     -0.1217
    132  CA       227.2090   59.7310    6.1850 C.3   285  SER285      0.1889
    133  C        228.3340   58.9540    5.4800 C.2   285  SER285      0.2288
    134  O        228.2430   58.6730    4.2840 O.2   285  SER285     -0.2866
    135  CB       227.5230   61.2060    6.0300 C.3   285  SER285      0.2089
    136  OG       228.8000   61.4750    6.5870 O.3   285  SER285     -0.2183
    137  N        218.2130   59.3340    0.2030 N.3   324  ASP324     -0.1239
    138  CA       216.9340   59.9630    0.4750 C.3   324  ASP324      0.1674
    139  C        216.2060   60.4320   -0.7880 C.2   324  ASP324      0.2266
    140  O        215.0100   60.7280   -0.7350 O.2   324  ASP324     -0.2867
    141  CB       217.1340   61.1530    1.4110 C.3   324  ASP324      0.1410
    142  CG       217.8640   62.2930    0.7460 C.2   324  ASP324      0.3668
    143  OD1      218.7490   62.0250   -0.0830 O.co2 324  ASP324     -0.2456
    144  OD2      217.5590   63.4580    1.0540 O.co2 324  ASP324     -0.2456
    145  N        208.6170   67.3590    2.4290 N.3   351  THR351     -0.1218
    146  CA       208.0320   68.5790    1.8820 C.3   351  THR351      0.1862
    147  C        207.9140   68.4430    0.3740 C.2   351  THR351      0.2287
    148  O        208.5160   67.5470   -0.2220 O.2   351  THR351     -0.2866
    149  CB       208.8840   69.8200    2.2020 C.3   351  THR351      0.1770
    150  OG1      210.0860   69.7860    1.4240 O.3   351  THR351     -0.2211
    151  CG2      209.2300   69.8580    3.6780 C.3   351  THR351      0.0375
    152  N        211.6520   71.9070   -3.5530 N.3   355  LYS355     -0.1245
    153  CA       211.3380   73.1580   -2.8700 C.3   355  LYS355      0.1561
    154  C        210.0450   73.8530   -3.3020 C.2   355  LYS355      0.2260
    155  O        209.9130   75.0640   -3.1320 O.2   355  LYS355     -0.2867
    156  CB       212.4970   74.1460   -3.0250 C.3   355  LYS355      0.0271
    157  CG       213.8110   73.6930   -2.4140 C.3   355  LYS355      0.0035
    158  CD       214.8500   74.8050   -2.5190 C.3   355  LYS355      0.0206
    159  CE       216.1900   74.3860   -1.9430 C.3   355  LYS355      0.1093
    160  NZ       217.1520   75.5250   -1.9380 N.3   355  LYS355     -0.1314
@<TRIPOS>BOND
     1   152   153    1
     2   154   155    2
     3   154   153    1
     4    81    80   ar
     5   156   153    1
     6   156   157    1
     7    82    80   ar
     8   158   157    1
     9   158   159    1
    10    80    79    1
    11   159   160    1
    12    75    76    1
    13    79    76    1
    14   139   140    2
    15   139   138    1
    16    76    77    1
    17    19    20    1
    18    22    21    2
    19   148   147    2
    20    21    20    1
    21   143   142   ar
    22    18    17    1
    23    20    23    1
    24    58    56    1
    25   137   138    1
    26   147   146    1
    27   138   141    1
    28    17    16    1
    29   142   144   ar
    30   142   141    1
    31    57    56    1
    32    77    83   am
    33    77    78    2
    34    56    55    2
    35   150   149    1
    36    83    84    1
    37    91    89   ar
    38    91    93   ar
    39    23    24    1
    40    89    88   ar
    41    25    24    1
    42    25    26    1
    43   146   149    1
    44   146   145    1
    45    28    27    1
    46    16    15    1
    47   149   151    1
    48    55    54    1
    49    94    93    1
    50    15    14    1
    51    93    92   ar
    52    86    85    2
    53    26    27    2
    54    27    29    1
    55    84    87    1
    56    84    85    1
    57    88    87    1
    58    88    90   ar
    59    35    34    1
    60    35    36    1
    61    54    53    1
    62    37    36    1
    63    37    38    1
    64    85    95   am
    65   117   116    1
    66    92    90   ar
    67    34    31    1
    68    74    72    1
    69    12    13    2
    70    12    11    1
    71    14    11    1
    72   114   116   ar
    73   114   112   ar
    74   116   115   ar
    75    30    31    1
    76   112   111   ar
    77   134   133    2
    78   115   113   ar
    79    53    52    1
    80   111   113   ar
    81   111   110    1
    82    11    10    1
    83   124   123   ar
    84   110   107    1
    85    95    96    1
    86    31    32    1
    87    72    71    1
    88    52    49    1
    89   100    99    1
    90   125   123   ar
    91    96    99    1
    92    96    97    1
    93    32    33    2
    94   123   122    1
    95   133   132    1
    96    73    71    1
    97    99   101    1
    98   135   132    1
    99   135   136    1
   100   107   106    1
   101   107   108    1
   102   106   104   am
   103   132   131    1
   104    71    68    1
   105    42    41    2
   106   102    97   am
   107   102   103    1
   108    48    49    1
   109    49    50    1
   110    97    98    2
   111   118   108   am
   112   118   119    1
   113    51    50    2
   114   122   119    1
   115    62    61    2
   116    50    59   am
   117   108   109    2
   118    68    67    1
   119    68    69    1
   120   103   104    1
   121   104   105    2
   122   119   120    1
   123    41    40    1
   124    43    40    1
   125    43    44    1
   126    61    67   am
   127    61    60    1
   128    59    60    1
   129    60    63    1
   130    40    39    1
   131    69    70    2
   132    44    45    1
   133   120   126   am
   134   120   121    2
   135    45    46    1
   136   126   127    1
   137    63    64    1
   138    46    47    1
   139     9     8    1
   140    64    66    1
   141    64    65    1
   142     7     8    1
   143     7     6    1
   144   127   130    1
   145   127   128    1
   146     5     6    1
   147     5     2    1
   148   128   129    2
   149     2     3    1
   150     2     1    1
   151     4     3    2
