@<TRIPOS>MOLECULE
tmp/1racB00.pdb
 131 122 0 0 0
SMALL
GASTEIGER

@<TRIPOS>ATOM
      1  N         13.5550   84.0590   36.1620 N.3     8  GLN8       -0.1231
      2  CA        13.5790   83.5520   34.7990 C.3     8  GLN8        0.1698
      3  C         14.2170   84.7120   34.0440 C.2     8  GLN8        0.2592
      4  O         13.4840   85.5030   33.4420 O.2     8  GLN8       -0.2718
      5  CB        12.1430   83.2060   34.2950 C.3     8  GLN8        0.0381
      6  CG        12.1300   82.5940   32.9100 C.3     8  GLN8        0.0905
      7  CD        10.7360   82.2330   32.4350 C.2     8  GLN8        0.2608
      8  OE1        9.7420   82.7410   32.9530 O.2     8  GLN8       -0.2717
      9  NE2       10.6590   81.3510   31.4470 N.am    8  GLN8       -0.0878
     10  N         15.5510   84.8600   34.2050 N.am    9  VAL9       -0.1966
     11  CA        16.3820   85.9540   33.6630 C.3     9  VAL9        0.1727
     12  C         16.0500   86.3440   32.2040 C.2     9  VAL9        0.2616
     13  O         15.6040   85.4790   31.4290 O.2     9  VAL9       -0.2715
     14  CB        17.9070   85.5660   33.7410 C.3     9  VAL9        0.0290
     15  CG1       18.7120   86.8460   33.7060 C.3     9  VAL9        0.0023
     16  CG2       18.2850   84.8010   34.9990 C.3     9  VAL9        0.0023
     17  N         16.2980   87.5800   31.7390 N.am   10  GLU10      -0.1963
     18  CA        15.9640   87.9410   30.3690 C.3    10  GLU10       0.1733
     19  C         17.0530   88.3490   29.3710 C.2    10  GLU10       0.2616
     20  O         18.2610   88.3580   29.5930 O.2    10  GLU10      -0.2715
     21  CB        14.9190   89.0530   30.3800 C.3    10  GLU10       0.0429
     22  CG        13.4920   88.7190   30.8570 C.3    10  GLU10       0.1163
     23  CD        12.4580   89.8380   30.6170 C.2    10  GLU10       0.3649
     24  OE1       12.1440   90.0920   29.4490 O.co2  10  GLU10      -0.2457
     25  OE2       11.9820   90.4580   31.5870 O.co2  10  GLU10      -0.2457
     26  N         16.4510   88.4820   28.1890 N.am   11  ALA11      -0.1963
     27  CA        16.9640   88.8850   26.9010 C.3    11  ALA11       0.1728
     28  C         18.3580   89.2500   26.4450 C.2    11  ALA11       0.2616
     29  O         18.8410   90.3800   26.5810 O.2    11  ALA11      -0.2715
     30  CB        16.0520   90.0170   26.4280 C.3    11  ALA11       0.0334
     31  N         18.8920   88.2590   25.7230 N.am   12  ILE12      -0.1977
     32  CA        20.1580   88.4170   25.0210 C.3    12  ILE12       0.1596
     33  C         19.7760   88.8380   23.6160 C.2    12  ILE12       0.2287
     34  O         18.6340   88.5680   23.2000 O.2    12  ILE12      -0.2864
     35  CB        20.9860   87.1130   24.8860 C.3    12  ILE12       0.0276
     36  CG1       20.2650   85.9820   24.1710 C.3    12  ILE12       0.0022
     37  CG2       21.3130   86.6860   26.2890 C.3    12  ILE12       0.0022
     38  CD1       21.2200   84.8680   23.7100 C.3    12  ILE12       0.0001
     39  N         19.4610   79.8080   23.8000 N.3    17  VAL17      -0.1245
     40  CA        18.9980   79.6330   25.1520 C.3    17  VAL17       0.1561
     41  C         18.6120   78.1870   25.2230 C.2    17  VAL17       0.2260
     42  O         17.7290   77.7840   24.4730 O.2    17  VAL17      -0.2867
     43  CB        17.7470   80.4690   25.4750 C.3    17  VAL17       0.0252
     44  CG1       17.0370   80.0960   26.7720 C.3    17  VAL17       0.0019
     45  CG2       18.2310   81.8630   25.6170 C.3    17  VAL17       0.0019
     46  N         16.8930   75.9540   27.6870 N.3    19  ASP19      -0.1225
     47  CA        16.0760   76.1010   28.8670 C.3    19  ASP19       0.1805
     48  C         15.4840   74.7340   29.1250 C.2    19  ASP19       0.2597
     49  O         15.3870   73.8920   28.2410 O.2    19  ASP19      -0.2718
     50  CB        14.9780   77.1390   28.5960 C.3    19  ASP19       0.1424
     51  CG        14.0270   77.4550   29.7550 C.2    19  ASP19       0.3668
     52  OD1       14.4660   78.0620   30.7270 O.co2  19  ASP19      -0.2456
     53  OD2       12.8460   77.1050   29.6960 O.co2  19  ASP19      -0.2456
     54  N         15.0550   74.5490   30.3540 N.am   20  HIS20      -0.1975
     55  CA        14.5060   73.3200   30.8810 C.3    20  HIS20       0.1656
     56  C         15.3830   72.0870   30.8440 C.2    20  HIS20       0.2291
     57  O         15.0630   70.9440   30.4770 O.2    20  HIS20      -0.2864
     58  CB        13.1680   72.9900   30.2190 C.3    20  HIS20       0.0771
     59  CG        12.2100   72.8560   31.4000 C.ar   20  HIS20       0.0820
     60  ND1       11.2630   73.7620   31.6440 N.ar   20  HIS20      -0.2267
     61  CD2       12.3700   72.0300   32.5120 C.ar   20  HIS20       0.1154
     62  CE1       10.9130   73.5620   32.8920 C.ar   20  HIS20       0.1986
     63  NE2       11.5680   72.5490   33.4090 N.ar   20  HIS20      -0.2212
     64  N         19.3420   76.7300   33.1700 N.3    58  LEU58      -0.1245
     65  CA        19.1840   77.4580   31.9210 C.3    58  LEU58       0.1561
     66  C         20.5590   77.9480   31.5070 C.2    58  LEU58       0.2260
     67  O         21.3850   78.3540   32.3260 O.2    58  LEU58      -0.2867
     68  CB        18.2160   78.5670   32.2530 C.3    58  LEU58       0.0270
     69  CG        17.6760   79.6320   31.3490 C.3    58  LEU58       0.0019
     70  CD1       16.7990   80.5340   32.1520 C.3    58  LEU58       0.0001
     71  CD2       18.7460   80.5590   30.8900 C.3    58  LEU58       0.0001
     72  N         22.4970   80.5700   28.5410 N.3    60  LYS60      -0.1245
     73  CA        22.3600   81.5000   27.4290 C.3    60  LYS60       0.1561
     74  C         23.7360   81.8160   26.8250 C.2    60  LYS60       0.2260
     75  O         24.6570   82.3470   27.4590 O.2    60  LYS60      -0.2867
     76  CB        21.7020   82.8060   27.8870 C.3    60  LYS60       0.0271
     77  CG        20.3020   82.6640   28.4350 C.3    60  LYS60       0.0035
     78  CD        19.7290   84.0070   28.7730 C.3    60  LYS60       0.0206
     79  CE        18.3880   83.7460   29.4020 C.3    60  LYS60       0.1093
     80  NZ        17.8790   85.0220   29.8180 N.3    60  LYS60      -0.1314
     81  N         14.5130   72.7600   25.7510 N.3    82  THR82      -0.1218
     82  CA        14.0760   73.4020   24.5400 C.3    82  THR82       0.1862
     83  C         15.2950   74.2220   24.0870 C.2    82  THR82       0.2287
     84  O         15.9960   74.8020   24.9280 O.2    82  THR82      -0.2866
     85  CB        12.8500   74.2890   24.8960 C.3    82  THR82       0.1770
     86  OG1       11.9060   73.5120   25.6740 O.3    82  THR82      -0.2211
     87  CG2       12.2330   74.8670   23.6170 C.3    82  THR82       0.0375
     88  N         16.3450   77.4150   22.0890 N.3    84  ASN84      -0.1240
     89  CA        15.7920   78.5920   21.4960 C.3    84  ASN84       0.1653
     90  C         16.8950   79.3200   20.8260 C.2    84  ASN84       0.2266
     91  O         17.9170   79.6090   21.4380 O.2    84  ASN84      -0.2867
     92  CB        15.2260   79.4880   22.5190 C.3    84  ASN84       0.1155
     93  CG        14.0620   78.8230   23.1770 C.2    84  ASN84       0.2627
     94  OD1       12.9630   78.7750   22.6490 O.2    84  ASN84      -0.2716
     95  ND2       14.2560   78.2160   24.3300 N.am   84  ASN84      -0.0877
     96  N         17.6530   82.7270   18.7370 N.3    86  ILE86      -0.1245
     97  CA        17.1780   84.0720   18.9150 C.3    86  ILE86       0.1561
     98  C         17.8940   85.0320   18.0100 C.2    86  ILE86       0.2260
     99  O         19.1250   85.0830   17.9180 O.2    86  ILE86      -0.2867
    100  CB        17.3540   84.4100   20.4230 C.3    86  ILE86       0.0252
    101  CG1       16.1570   83.8540   21.1300 C.3    86  ILE86       0.0019
    102  CG2       17.4400   85.8910   20.7330 C.3    86  ILE86       0.0019
    103  CD1       16.6080   82.6830   21.9590 C.3    86  ILE86       0.0001
    104  N         16.2670   89.8760   19.5890 N.3    89  TYR89      -0.1241
    105  CA        15.3350   89.7390   20.7290 C.3    89  TYR89       0.1605
    106  C         14.1210   88.8180   20.5270 C.2    89  TYR89       0.2264
    107  O         13.2620   88.7080   21.4220 O.2    89  TYR89      -0.2867
    108  CB        14.7790   91.1120   21.1950 C.3    89  TYR89       0.0534
    109  CG        15.8810   92.0090   21.7010 C.ar   89  TYR89      -0.0201
    110  CD1       16.3890   91.8060   22.9630 C.ar   89  TYR89      -0.0009
    111  CD2       16.4550   92.9190   20.8470 C.ar   89  TYR89      -0.0009
    112  CE1       17.5450   92.4460   23.3490 C.ar   89  TYR89       0.0417
    113  CE2       17.6010   93.5740   21.2240 C.ar   89  TYR89       0.0417
    114  CZ        18.1570   93.3080   22.4590 C.ar   89  TYR89       0.1957
    115  OH        19.3780   93.8800   22.7960 O.3    89  TYR89      -0.2866
    116  N         12.6420   84.8840   19.5330 N.3    91  VAL91      -0.1245
    117  CA        12.8110   83.4440   19.4670 C.3    91  VAL91       0.1561
    118  C         12.3930   83.0310   18.0690 C.2    91  VAL91       0.2260
    119  O         11.2680   82.5950   17.8250 O.2    91  VAL91      -0.2867
    120  CB        11.9140   82.7860   20.5500 C.3    91  VAL91       0.0252
    121  CG1       11.9380   81.2730   20.5010 C.3    91  VAL91       0.0019
    122  CG2       12.4260   83.2580   21.8900 C.3    91  VAL91       0.0019
    123  N         12.5750   77.2260   18.0730 N.3    94  LYS94      -0.1245
    124  CA        12.4380   76.4150   19.2530 C.3    94  LYS94       0.1561
    125  C         12.6250   74.9800   18.8320 C.2    94  LYS94       0.2260
    126  O         11.8290   74.4300   18.0570 O.2    94  LYS94      -0.2867
    127  CB        11.0780   76.4740   19.8630 C.3    94  LYS94       0.0271
    128  CG        10.8180   77.7580   20.5390 C.3    94  LYS94       0.0035
    129  CD         9.6330   77.4630   21.3930 C.3    94  LYS94       0.0206
    130  CE         9.0690   78.7760   21.7940 C.3    94  LYS94       0.1093
    131  NZ         7.8230   78.5200   22.4730 N.3    94  LYS94      -0.1314
@<TRIPOS>BOND
     1   119   118    2
     2    99    98    2
     3    98    97    1
     4   126   125    2
     5   118   117    1
     6   123   124    1
     7    96    97    1
     8   125   124    1
     9    97   100    1
    10   124   127    1
    11   117   116    1
    12   117   120    1
    13   104   105    1
    14   127   128    1
    15   100   102    1
    16   100   101    1
    17   121   120    1
    18   106   105    1
    19   106   107    2
    20   128   129    1
    21   120   122    1
    22   105   108    1
    23    90    91    2
    24    90    89    1
    25   111   113   ar
    26   111   109   ar
    27   101   103    1
    28   108   109    1
    29   113   114   ar
    30   129   130    1
    31    89    88    1
    32    89    92    1
    33   109   110   ar
    34   130   131    1
    35   114   115    1
    36   114   112   ar
    37    92    93    1
    38    94    93    2
    39   110   112   ar
    40    93    95   am
    41    34    33    2
    42    33    32    1
    43    87    85    1
    44    38    36    1
    45    39    40    1
    46    83    82    1
    47    83    84    2
    48    36    35    1
    49    42    41    2
    50    82    85    1
    51    82    81    1
    52    35    32    1
    53    35    37    1
    54    85    86    1
    55    32    31    1
    56    40    41    1
    57    40    43    1
    58    43    45    1
    59    43    44    1
    60    31    28   am
    61    30    27    1
    62    28    29    2
    63    28    27    1
    64    74    73    1
    65    74    75    2
    66    27    26    1
    67    73    76    1
    68    73    72    1
    69    46    47    1
    70    76    77    1
    71    26    19   am
    72    49    48    2
    73    77    78    1
    74    50    47    1
    75    50    51    1
    76    78    79    1
    77    47    48    1
    78    48    54   am
    79    19    20    2
    80    19    18    1
    81    79    80    1
    82    24    23   ar
    83    53    51   ar
    84    51    52   ar
    85    58    55    1
    86    58    59    1
    87    54    55    1
    88    18    21    1
    89    18    17    1
    90    21    22    1
    91    57    56    2
    92    23    22    1
    93    23    25   ar
    94    56    55    1
    95    71    69    1
    96    69    70    1
    97    69    68    1
    98    59    60   ar
    99    59    61   ar
   100    13    12    2
   101     9     7   am
   102    66    65    1
   103    66    67    2
   104    60    62   ar
   105    17    12   am
   106    65    68    1
   107    65    64    1
   108    12    11    1
   109     7     6    1
   110     7     8    2
   111    61    63   ar
   112    62    63   ar
   113     6     5    1
   114     4     3    2
   115    11    14    1
   116    11    10    1
   117    15    14    1
   118    14    16    1
   119     3    10   am
   120     3     2    1
   121     5     2    1
   122     2     1    1
