@<TRIPOS>MOLECULE
tmp/1raoA00.pdb
 105 102 0 0 0
SMALL
GASTEIGER

@<TRIPOS>ATOM
      1  N          7.3230    1.2660   13.3840 N.3    70  LEU70      -0.1245
      2  CA         8.4460    1.9400   14.0250 C.3    70  LEU70       0.1561
      3  C          8.5120    1.5830   15.5030 C.2    70  LEU70       0.2260
      4  O          9.6230    1.4350   16.0140 O.2    70  LEU70      -0.2867
      5  CB         8.3920    3.4700   13.8580 C.3    70  LEU70       0.0270
      6  CG         9.5560    4.2970   14.4290 C.3    70  LEU70       0.0019
      7  CD1       10.8700    4.0430   13.6710 C.3    70  LEU70       0.0001
      8  CD2        9.3200    5.7980   14.3890 C.3    70  LEU70       0.0001
      9  N         11.9770   -0.0050   16.9730 N.3    74  GLN74      -0.1245
     10  CA        12.6660    0.6580   18.0810 C.3    74  GLN74       0.1566
     11  C         12.7430   -0.2480   19.2990 C.2    74  GLN74       0.2260
     12  O         13.7130   -0.2450   20.0550 O.2    74  GLN74      -0.2867
     13  CB        11.9920    1.9970   18.4170 C.3    74  GLN74       0.0367
     14  CG        12.2840    3.0250   17.3050 C.3    74  GLN74       0.0905
     15  CD        11.6050    4.3540   17.5880 C.2    74  GLN74       0.2608
     16  OE1       10.7310    4.4840   18.4780 O.2    74  GLN74      -0.2717
     17  NE2       11.9780    5.3960   16.8610 N.am   74  GLN74      -0.0878
     18  N         17.9920    0.0100   12.9020 N.3    96  LEU96      -0.1231
     19  CA        16.9230   -0.5000   12.0380 C.3    96  LEU96       0.1693
     20  C         16.1750    0.7140   11.4840 C.2    96  LEU96       0.2592
     21  O         15.6910    1.4980   12.3070 O.2    96  LEU96      -0.2718
     22  CB        15.9810   -1.4170   12.7850 C.3    96  LEU96       0.0284
     23  CG        16.5110   -2.7240   13.3460 C.3    96  LEU96       0.0019
     24  CD1       15.4810   -3.3940   14.2550 C.3    96  LEU96       0.0001
     25  CD2       16.9150   -3.6410   12.1970 C.3    96  LEU96       0.0001
     26  N         16.0960    0.8820   10.1690 N.am   97  ASP97      -0.1960
     27  CA        15.4530    2.0720    9.6310 C.3    97  ASP97       0.1840
     28  C         14.4300    1.6470    8.5660 C.2    97  ASP97       0.2621
     29  O         14.6800    0.7340    7.7730 O.2    97  ASP97      -0.2715
     30  CB        16.4320    3.0420    8.9970 C.3    97  ASP97       0.1450
     31  CG        17.3110    3.7230   10.0280 C.2    97  ASP97       0.3671
     32  OD1       16.9210    4.7790   10.5620 O.co2  97  ASP97      -0.2456
     33  OD2       18.4070    3.1980   10.3010 O.co2  97  ASP97      -0.2456
     34  N         13.3270    2.3950    8.6350 N.am   98  ILE98      -0.1977
     35  CA        12.3110    2.2140    7.6260 C.3    98  ILE98       0.1596
     36  C         12.6450    3.0760    6.4180 C.2    98  ILE98       0.2287
     37  O         12.5750    4.2980    6.4310 O.2    98  ILE98      -0.2864
     38  CB        10.9190    2.5370    8.1980 C.3    98  ILE98       0.0276
     39  CG1       10.5460    1.6650    9.4050 C.3    98  ILE98       0.0022
     40  CG2        9.8820    2.4640    7.0860 C.3    98  ILE98       0.0022
     41  CD1        9.3540    2.1840   10.1630 C.3    98  ILE98       0.0001
     42  N          6.6700   13.8570   13.4190 N.3   109  GLU109     -0.1231
     43  CA         7.7320   14.0880   14.3820 C.3   109  GLU109      0.1699
     44  C          8.6720   12.8860   14.4950 C.2   109  GLU109      0.2592
     45  O          9.8810   13.0690   14.6950 O.2   109  GLU109     -0.2718
     46  CB         7.1110   14.3580   15.7550 C.3   109  GLU109      0.0402
     47  CG         6.2520   15.6170   15.7920 C.3   109  GLU109      0.1161
     48  CD         4.7810   15.3460   15.5680 C.2   109  GLU109      0.3649
     49  OE1        4.4420   14.4560   14.7610 O.co2 109  GLU109     -0.2457
     50  OE2        3.9610   16.0160   16.2000 O.co2 109  GLU109     -0.2457
     51  N          8.0790   11.6950   14.3870 N.am  110  ARG110     -0.1966
     52  CA         8.8410   10.4550   14.6180 C.3   110  ARG110      0.1729
     53  C          9.3810    9.8480   13.3380 C.2   110  ARG110      0.2616
     54  O         10.4160    9.1730   13.3660 O.2   110  ARG110     -0.2715
     55  CB         7.9910    9.3830   15.3050 C.3   110  ARG110      0.0348
     56  CG         7.4530    9.7550   16.6920 C.3   110  ARG110      0.0492
     57  CD         6.6520    8.6000   17.2980 C.3   110  ARG110      0.2205
     58  NE         7.4960    7.4170   17.4860 N.pl3 110  ARG110     -0.0865
     59  CZ         7.1130    6.1650   17.5680 C.cat 110  ARG110      0.5346
     60  NH1        5.8230    5.8960   17.4700 N.pl3 110  ARG110      0.1354
     61  NH2        7.9870    5.1800   17.7450 N.pl3 110  ARG110      0.1354
     62  N          8.6980   10.0340   12.2170 N.am  111  LEU111     -0.1963
     63  CA         8.9550    9.2190   11.0300 C.3   111  LEU111      0.1728
     64  C          9.0880   10.0590    9.7670 C.2   111  LEU111      0.2617
     65  O          8.1890   10.8550    9.4530 O.2   111  LEU111     -0.2715
     66  CB         7.7720    8.2630   10.9350 C.3   111  LEU111      0.0311
     67  CG         7.8700    7.0360   10.0460 C.3   111  LEU111      0.0022
     68  CD1        9.1890    6.2940   10.1920 C.3   111  LEU111      0.0001
     69  CD2        6.7030    6.1120   10.3660 C.3   111  LEU111      0.0001
     70  N         10.1950    9.8900    9.0590 N.am  112  THR112     -0.1937
     71  CA        10.3400   10.4820    7.7270 C.3   112  THR112      0.2028
     72  C         10.5430    9.3450    6.7510 C.2   112  THR112      0.2642
     73  O         11.5740    8.6570    6.8310 O.2   112  THR112     -0.2714
     74  CB        11.5410   11.4320    7.6780 C.3   112  THR112      0.1808
     75  OG1       11.2220   12.5480    8.5300 O.3   112  THR112     -0.2208
     76  CG2       11.7950   11.9900    6.2670 C.3   112  THR112      0.0379
     77  N          9.5420    9.1630    5.9020 N.am  113  VAL113     -0.1977
     78  CA         9.5870    8.1120    4.8870 C.3   113  VAL113      0.1596
     79  C          9.3200    8.7550    3.5490 C.2   113  VAL113      0.2287
     80  O          8.3390    9.5080    3.4340 O.2   113  VAL113     -0.2864
     81  CB         8.5920    6.9790    5.1390 C.3   113  VAL113      0.0276
     82  CG1        8.5810    5.9700    4.0010 C.3   113  VAL113      0.0022
     83  CG2        8.9660    6.3340    6.4630 C.3   113  VAL113      0.0022
     84  N         13.3140    7.3170    3.7160 N.3   115  HIS115     -0.1226
     85  CA        14.3210    7.6160    4.7300 C.3   115  HIS115      0.1752
     86  C         15.0440    8.8960    4.3140 C.2   115  HIS115      0.2596
     87  O         15.3750    9.1090    3.1460 O.2   115  HIS115     -0.2718
     88  CB        15.2670    6.4300    4.9290 C.3   115  HIS115      0.0759
     89  CG        16.4600    6.7330    5.7650 C.ar  115  HIS115      0.0818
     90  ND1       17.5890    7.3530    5.2720 N.ar  115  HIS115     -0.2268
     91  CD2       16.6920    6.5210    7.0960 C.ar  115  HIS115      0.1154
     92  CE1       18.4640    7.4940    6.2480 C.ar  115  HIS115      0.1986
     93  NE2       17.9440    6.9980    7.3580 N.ar  115  HIS115     -0.2212
     94  N         15.2700    9.7440    5.2940 N.am  116  TYR116     -0.1976
     95  CA        15.7000   11.1240    5.0410 C.3   116  TYR116      0.1639
     96  C         16.9960   11.2680    4.2890 C.2   116  TYR116      0.2290
     97  O         17.2430   12.3620    3.7080 O.2   116  TYR116     -0.2864
     98  CB        15.7550   11.8720    6.3870 C.3   116  TYR116      0.0560
     99  CG        17.0740   11.6620    7.1090 C.ar  116  TYR116     -0.0198
    100  CD1       17.4320   10.4490    7.6640 C.ar  116  TYR116     -0.0009
    101  CD2       17.9700   12.7170    7.2260 C.ar  116  TYR116     -0.0009
    102  CE1       18.6420   10.2860    8.3210 C.ar  116  TYR116      0.0417
    103  CE2       19.1800   12.5690    7.8750 C.ar  116  TYR116      0.0417
    104  CZ        19.5140   11.3470    8.4250 C.ar  116  TYR116      0.1957
    105  OH        20.7370   11.2180    9.0660 O.3   116  TYR116     -0.2866
@<TRIPOS>BOND
     1    87    86    2
     2    80    79    2
     3    79    78    1
     4    97    96    2
     5    84    85    1
     6    82    81    1
     7    96    95    1
     8    86    85    1
     9    86    94   am
    10    85    88    1
    11    78    81    1
    12    78    77    1
    13    88    89    1
    14    95    94    1
    15    95    98    1
    16    81    83    1
    17    90    89   ar
    18    90    92   ar
    19    89    91   ar
    20    77    72   am
    21    92    93   ar
    22    76    74    1
    23    98    99    1
    24    36    37    2
    25    36    35    1
    26    72    73    2
    27    72    71    1
    28    40    38    1
    29    91    93   ar
    30    99   101   ar
    31    99   100   ar
    32   101   103   ar
    33    35    38    1
    34    35    34    1
    35   100   102   ar
    36    74    71    1
    37    74    75    1
    38    71    70    1
    39    29    28    2
    40   103   104   ar
    41    38    39    1
    42   102   104   ar
    43   104   105    1
    44    28    34   am
    45    28    27    1
    46    30    27    1
    47    30    31    1
    48    70    64   am
    49    39    41    1
    50    65    64    2
    51    27    26    1
    52    64    63    1
    53    31    33   ar
    54    31    32   ar
    55    67    68    1
    56    67    69    1
    57    67    66    1
    58    26    20   am
    59    66    63    1
    60    63    62    1
    61    20    19    1
    62    20    21    2
    63    19    22    1
    64    19    18    1
    65    25    23    1
    66    62    53   am
    67    22    23    1
    68    53    54    2
    69    53    52    1
    70    23    24    1
    71     1     2    1
    72    42    43    1
    73     7     6    1
    74     5     2    1
    75     5     6    1
    76     2     3    1
    77    43    44    1
    78    43    46    1
    79    51    44   am
    80    51    52    1
    81     8     6    1
    82    44    45    2
    83    52    55    1
    84    49    48   ar
    85    55    56    1
    86     3     4    2
    87    48    47    1
    88    48    50   ar
    89    46    47    1
    90    56    57    1
    91    17    15   am
    92     9    10    1
    93    57    58    1
    94    14    15    1
    95    14    13    1
    96    60    59    1
    97    58    59    2
    98    59    61    1
    99    15    16    2
   100    10    13    1
   101    10    11    1
   102    11    12    2
