@<TRIPOS>MOLECULE
tmp/1rarA00.pdb
 106 102 0 0 0
SMALL
GASTEIGER

@<TRIPOS>ATOM
      1  N         24.1160    4.3620   28.0460 N.3     3  ALA3       -0.1245
      2  CA        23.4350    5.5590   28.5720 C.3     3  ALA3        0.1562
      3  C         24.3540    6.7780   28.4800 C.2     3  ALA3        0.2260
      4  O         23.8230    7.8380   28.1100 O.2     3  ALA3       -0.2867
      5  CB        22.9410    5.3670   30.0020 C.3     3  ALA3        0.0290
      6  N         24.5810    7.9860   24.8270 N.3     6  LYS6       -0.1231
      7  CA        23.3100    8.5870   24.3520 C.3     6  LYS6        0.1693
      8  C         23.1900   10.0330   24.8490 C.2     6  LYS6        0.2592
      9  O         22.7690   10.9820   24.1230 O.2     6  LYS6       -0.2718
     10  CB        22.1380    7.7130   24.7710 C.3     6  LYS6        0.0285
     11  CG        20.8070    8.2810   24.2510 C.3     6  LYS6        0.0035
     12  CD        19.6570    7.4760   24.8290 C.3     6  LYS6        0.0206
     13  CE        18.8950    6.7350   23.7630 C.3     6  LYS6        0.1093
     14  NZ        19.7860    5.6910   23.1950 N.3     6  LYS6       -0.1314
     15  N         23.5990   10.2580   26.1010 N.am    7  PHE7       -0.1976
     16  CA        23.5690   11.6340   26.6790 C.3     7  PHE7        0.1639
     17  C         24.4570   12.5800   25.8570 C.2     7  PHE7        0.2290
     18  O         24.1370   13.7490   25.4990 O.2     7  PHE7       -0.2864
     19  CB        23.9480   11.6450   28.1700 C.3     7  PHE7        0.0560
     20  CG        24.0760   13.0450   28.7070 C.ar    7  PHE7       -0.0200
     21  CD1       25.3110   13.7070   28.6190 C.ar    7  PHE7       -0.0042
     22  CD2       22.9750   13.7060   29.2420 C.ar    7  PHE7       -0.0042
     23  CE1       25.4520   15.0250   29.0960 C.ar    7  PHE7       -0.0003
     24  CE2       23.0930   15.0060   29.7290 C.ar    7  PHE7       -0.0003
     25  CZ        24.3130   15.6680   29.6530 C.ar    7  PHE7       -0.0000
     26  N         23.0320   13.3220   22.2650 N.3    10  GLN10      -0.1231
     27  CA        21.8600   14.2220   22.3130 C.3    10  GLN10       0.1698
     28  C         22.0900   15.5700   22.9510 C.2    10  GLN10       0.2588
     29  O         21.3210   16.4920   22.5960 O.2    10  GLN10      -0.2718
     30  CB        20.7370   13.4790   23.0650 C.3    10  GLN10       0.0381
     31  CG        20.3730   12.1650   22.3910 C.3    10  GLN10       0.0905
     32  CD        19.0850   11.6290   22.9600 C.2    10  GLN10       0.2608
     33  OE1       18.6160   12.0250   24.0090 O.2    10  GLN10      -0.2717
     34  NE2       18.4080   10.6980   22.2850 N.am   10  GLN10      -0.0878
     35  N         23.0820   15.7420   23.8160 N.am   11  HIS11      -0.2029
     36  CA        23.2580   17.0590   24.4700 C.3    11  HIS11       0.1342
     37  C         24.6020   17.7680   24.4140 C.3    11  HIS11       0.2040
     38  O         24.5930   18.9330   24.8900 O.3    11  HIS11      -0.2185
     39  CB        22.8690   16.8610   25.9930 C.3    11  HIS11       0.0718
     40  CG        21.4570   16.3760   26.0940 C.ar   11  HIS11       0.0817
     41  ND1       20.3710   17.2170   25.9410 N.ar   11  HIS11      -0.2268
     42  CD2       20.9430   15.1380   26.2800 C.ar   11  HIS11       0.1154
     43  CE1       19.2620   16.5250   26.0810 C.ar   11  HIS11       0.1986
     44  NE2       19.5650   15.2520   26.2860 N.ar   11  HIS11      -0.2212
     45  N         12.0980   14.9840   17.4490 N.3    40  LYS40      -0.1245
     46  CA        12.2320   15.0520   18.9440 C.3    40  LYS40       0.1561
     47  C         11.6540   16.4240   19.2870 C.2    40  LYS40       0.2260
     48  O         12.1490   17.4240   18.7140 O.2    40  LYS40      -0.2867
     49  CB        13.6340   14.8500   19.4580 C.3    40  LYS40       0.0271
     50  CG        13.7400   14.6130   20.9720 C.3    40  LYS40       0.0035
     51  CD        15.1930   14.2920   21.3380 C.3    40  LYS40       0.0206
     52  CE        15.3110   13.7830   22.7680 C.3    40  LYS40       0.1093
     53  NZ        15.3900   14.9230   23.7240 N.3    40  LYS40      -0.1314
     54  N         14.8610   19.6100   22.9830 N.3    43  ASN43      -0.1240
     55  CA        16.2350   19.1080   23.2240 C.3    43  ASN43       0.1653
     56  C         17.1760   20.2520   23.5770 C.2    43  ASN43       0.2266
     57  O         17.1270   21.2390   22.8120 O.2    43  ASN43      -0.2867
     58  CB        16.7010   18.2960   22.0000 C.3    43  ASN43       0.1155
     59  CG        17.9610   17.5170   22.3510 C.2    43  ASN43       0.2627
     60  OD1       17.8270   16.5660   23.1160 O.2    43  ASN43      -0.2716
     61  ND2       19.1230   17.8610   21.8290 N.am   43  ASN43      -0.0877
     62  N         11.5120   13.9680   38.4200 N.3    66  ASN66      -0.1296
     63  CA        10.8840   12.6500   38.6090 C.3    66  ASN66       0.1339
     64  C         10.9130   12.1790   40.0610 C.3    66  ASN66       0.2014
     65  O         10.2600   11.1350   40.2890 O.3    66  ASN66      -0.2188
     66  CB        11.5600   11.6440   37.6820 C.3    66  ASN66       0.1102
     67  CG        12.8940   11.1520   38.1830 C.2    66  ASN66       0.2623
     68  OD1       13.2220   11.1520   39.3740 O.2    66  ASN66      -0.2716
     69  ND2       13.7640   10.6600   37.2930 N.am   66  ASN66      -0.0877
     70  N         13.6550   11.1990   41.9850 N.3    68  GLN68      -0.1245
     71  CA        14.8890   10.4620   42.3110 C.3    68  GLN68       0.1566
     72  C         15.8790   11.5020   42.8480 C.2    68  GLN68       0.2260
     73  O         15.6600   12.7080   42.5920 O.2    68  GLN68      -0.2867
     74  CB        15.4670    9.6850   41.1470 C.3    68  GLN68       0.0367
     75  CG        14.6770    8.5800   40.4750 C.3    68  GLN68       0.0905
     76  CD        15.4620    7.9730   39.3210 C.2    68  GLN68       0.2608
     77  OE1       14.9930    7.6060   38.2280 O.2    68  GLN68      -0.2717
     78  NE2       16.7890    7.8740   39.5110 N.am   68  GLN68      -0.0878
     79  N         23.6740   11.0270   32.5570 N.3   117  VAL117     -0.1231
     80  CA        22.9000   10.1020   31.7060 C.3   117  VAL117      0.1692
     81  C         21.5880   10.7580   31.2460 C.2   117  VAL117      0.2592
     82  O         20.9490   10.2420   30.3120 O.2   117  VAL117     -0.2718
     83  CB        22.6100    8.7410   32.3690 C.3   117  VAL117      0.0266
     84  CG1       23.8420    7.8800   32.5370 C.3   117  VAL117      0.0020
     85  CG2       21.8710    8.8540   33.6930 C.3   117  VAL117      0.0020
     86  N         21.1980   11.8610   31.8650 N.am  118  HIS118     -0.1962
     87  CA        19.9420   12.5460   31.5130 C.3   118  HIS118      0.1787
     88  C         19.9860   14.0390   31.7910 C.2   118  HIS118      0.2620
     89  O         20.5340   14.4560   32.8320 O.2   118  HIS118     -0.2715
     90  CB        18.7290   11.9330   32.2750 C.3   118  HIS118      0.0785
     91  CG        17.3820   12.4960   31.9560 C.ar  118  HIS118      0.0821
     92  ND1       16.9110   12.7310   30.6810 N.ar  118  HIS118     -0.2267
     93  CD2       16.3650   12.8560   32.7680 C.ar  118  HIS118      0.1154
     94  CE1       15.6720   13.1890   30.7200 C.ar  118  HIS118      0.1986
     95  NE2       15.3140   13.2630   31.9850 N.ar  118  HIS118     -0.2212
     96  N         19.4330   14.8080   30.8520 N.am  119  PHE119     -0.1974
     97  CA        19.3690   16.2860   31.0390 C.3   119  PHE119      0.1639
     98  C         18.0130   16.5010   31.7380 C.2   119  PHE119      0.2290
     99  O         16.9900   16.2240   31.0710 O.2   119  PHE119     -0.2864
    100  CB        19.5180   17.1110   29.7880 C.3   119  PHE119      0.0560
    101  CG        19.7580   18.5860   29.9350 C.ar  119  PHE119     -0.0200
    102  CD1       18.6630   19.4510   30.0370 C.ar  119  PHE119     -0.0042
    103  CD2       21.0560   19.0760   29.9450 C.ar  119  PHE119     -0.0042
    104  CE1       18.8580   20.8410   30.1590 C.ar  119  PHE119     -0.0003
    105  CE2       21.2880   20.4340   30.0780 C.ar  119  PHE119     -0.0003
    106  CZ        20.1850   21.3080   30.1690 C.ar  119  PHE119     -0.0000
@<TRIPOS>BOND
     1    45    46    1
     2    48    47    2
     3    46    47    1
     4    46    49    1
     5    49    50    1
     6    50    51    1
     7    51    52    1
     8    61    59   am
     9    58    59    1
    10    58    55    1
    11    26    27    1
    12    34    32   am
    13    27    28    1
    14    27    30    1
    15    59    60    2
    16    31    32    1
    17    31    30    1
    18    29    28    2
    19    52    53    1
    20    57    56    2
    21    28    35   am
    22    32    33    2
    23    54    55    1
    24    14    13    1
    25    55    56    1
    26    13    12    1
    27    35    36    1
    28     9     8    2
    29    11    10    1
    30    11    12    1
    31     7    10    1
    32     7     6    1
    33     7     8    1
    34    37    36    1
    35    37    38    1
    36    36    39    1
    37     8    15   am
    38    18    17    2
    39    17    16    1
    40    41    43   ar
    41    41    40   ar
    42    39    40    1
    43    43    44   ar
    44    40    42   ar
    45    15    16    1
    46    42    44   ar
    47    16    19    1
    48     1     2    1
    49     4     3    2
    50    19    20    1
    51     3     2    1
    52     2     5    1
    53    21    20   ar
    54    21    23   ar
    55    20    22   ar
    56    23    25   ar
    57    22    24   ar
    58    25    24   ar
    59   100   101    1
    60   100    97    1
    61   101   103   ar
    62   101   102   ar
    63   103   105   ar
    64   102   104   ar
    65   105   106   ar
    66   104   106   ar
    67    82    81    2
    68    92    94   ar
    69    92    91   ar
    70    94    95   ar
    71    96    97    1
    72    96    88   am
    73    97    98    1
    74    99    98    2
    75    81    80    1
    76    81    86   am
    77    87    88    1
    78    87    86    1
    79    87    90    1
    80    80    83    1
    81    80    79    1
    82    88    89    2
    83    91    90    1
    84    91    93   ar
    85    95    93   ar
    86    83    84    1
    87    83    85    1
    88    69    67   am
    89    66    67    1
    90    66    63    1
    91    67    68    2
    92    77    76    2
    93    62    63    1
    94    63    64    1
    95    76    78   am
    96    76    75    1
    97    64    65    1
    98    75    74    1
    99    74    71    1
   100    70    71    1
   101    71    72    1
   102    73    72    2
