@<TRIPOS>MOLECULE
tmp/1rb0A00.pdb
 164 163 0 0 0
SMALL
GASTEIGER

@<TRIPOS>ATOM
      1  N         12.8360   12.7070    8.8720 N.3     8  GLY8       -0.1225
      2  CA        13.1980   11.3230    8.6400 C.3     8  GLY8        0.1811
      3  C         12.6690   10.5700    9.8400 C.2     8  GLY8        0.2280
      4  O         12.8670   11.0070   10.9620 O.2     8  GLY8       -0.2866
      5  N         12.4140    5.4560    1.9750 N.3    42  THR42      -0.1204
      6  CA        13.7530    5.5330    1.4500 C.3    42  THR42       0.1979
      7  C         14.6310    4.5130    2.1480 C.2    42  THR42       0.2460
      8  O         14.5180    4.2460    3.3230 O.2    42  THR42      -0.2732
      9  CB        14.3670    6.9240    1.6660 C.3    42  THR42       0.1783
     10  OG1       14.5070    7.0940    3.0620 O.3    42  THR42      -0.2211
     11  CG2       13.4110    8.0050    1.1800 C.3    42  THR42       0.0376
     12  N         15.5450    3.9970    1.3590 N.am   43  PRO43      -0.2718
     13  CA        16.5070    3.0440    1.9010 C.3    43  PRO43       0.1520
     14  C         17.4570    3.8030    2.8270 C.2    43  PRO43       0.2440
     15  O         17.8160    4.9430    2.4710 O.2    43  PRO43      -0.2731
     16  CB        17.2120    2.5270    0.6720 C.3    43  PRO43       0.0310
     17  CG        16.8540    3.4130   -0.4670 C.3    43  PRO43       0.0237
     18  CD        15.6960    4.2670   -0.0850 C.3    43  PRO43       0.0939
     19  N         17.8240    3.2160    3.9530 N.am   44  PRO44      -0.2716
     20  CA        18.6660    3.9220    4.9330 C.3    44  PRO44       0.1536
     21  C         19.9780    4.3010    4.2550 C.2    44  PRO44       0.2598
     22  O         20.3870    3.6350    3.3030 O.2    44  PRO44      -0.2715
     23  CB        18.9100    2.9130    6.0500 C.3    44  PRO44       0.0310
     24  CG        18.6760    1.6000    5.3700 C.3    44  PRO44       0.0237
     25  CD        17.5080    1.8610    4.4340 C.3    44  PRO44       0.0939
     26  N         20.4600    5.4670    4.6050 N.am   45  LEU45      -0.1964
     27  CA        21.7190    6.0280    4.1120 C.3    45  LEU45       0.1728
     28  C         22.8840    5.1970    4.6310 C.2    45  LEU45       0.2616
     29  O         23.9450    5.0930    4.0060 O.2    45  LEU45      -0.2715
     30  CB        21.7910    7.4900    4.5240 C.3    45  LEU45       0.0311
     31  CG        23.1320    8.1870    4.7140 C.3    45  LEU45       0.0022
     32  CD1       23.8060    8.4860    3.3810 C.3    45  LEU45       0.0001
     33  CD2       22.9540    9.4730    5.5090 C.3    45  LEU45       0.0001
     34  N         22.7040    4.5760    5.8020 N.am   46  GLY46      -0.1955
     35  CA        23.8280    3.8230    6.3610 C.3    46  GLY46       0.1869
     36  C         23.9030    2.4740    5.6610 C.2    46  GLY46       0.2309
     37  O         23.7400    2.3820    4.4360 O.2    46  GLY46      -0.2863
     38  N         13.5230    4.4170    5.7960 N.3    53  TYR53      -0.1241
     39  CA        13.0040    5.5900    6.4540 C.3    53  TYR53       0.1605
     40  C         11.7690    6.1280    5.7380 C.2    53  TYR53       0.2264
     41  O         11.6280    5.9380    4.5360 O.2    53  TYR53      -0.2867
     42  CB        13.9820    6.7390    6.3440 C.3    53  TYR53       0.0534
     43  CG        15.0680    6.7300    7.3790 C.ar   53  TYR53      -0.0201
     44  CD1       16.0580    5.7530    7.3690 C.ar   53  TYR53      -0.0009
     45  CD2       15.0450    7.7050    8.3740 C.ar   53  TYR53      -0.0009
     46  CE1       17.0290    5.7970    8.3640 C.ar   53  TYR53       0.0417
     47  CE2       16.0280    7.7360    9.3320 C.ar   53  TYR53       0.0417
     48  CZ        17.0100    6.7780    9.3270 C.ar   53  TYR53       0.1957
     49  OH        17.9850    6.8290   10.2980 O.3    53  TYR53      -0.2866
     50  N         10.7780    9.6540    4.6770 N.3    55  ASN55      -0.1240
     51  CA        11.3360   10.9820    4.5440 C.3    55  ASN55       0.1653
     52  C         10.3070   11.9070    3.9340 C.2    55  ASN55       0.2266
     53  O          9.4810   11.4860    3.1240 O.2    55  ASN55      -0.2867
     54  CB        12.5850   10.9920    3.6760 C.3    55  ASN55       0.1155
     55  CG        13.7620   10.4360    4.4570 C.2    55  ASN55       0.2627
     56  OD1       14.2710    9.3640    4.1370 O.2    55  ASN55      -0.2716
     57  ND2       14.1570   11.1650    5.4910 N.am   55  ASN55      -0.0877
     58  N         24.6650    3.6240   14.9550 N.3    88  ARG88      -0.1231
     59  CA        25.5800    4.7100   14.5910 C.3    88  ARG88       0.1694
     60  C         24.9330    5.5290   13.4950 C.2    88  ARG88       0.2592
     61  O         25.0460    6.7430   13.3580 O.2    88  ARG88      -0.2718
     62  CB        26.9220    4.1240   14.1730 C.3    88  ARG88       0.0321
     63  CG        27.7430    3.6470   15.3700 C.3    88  ARG88       0.0489
     64  CD        29.2300    3.6720   15.0880 C.3    88  ARG88       0.2205
     65  NE        29.6130    2.6100   14.1650 N.pl3  88  ARG88      -0.0865
     66  CZ        30.3850    2.7630   13.0940 C.cat  88  ARG88       0.5346
     67  NH1       30.8870    3.9580   12.7680 N.pl3  88  ARG88       0.1354
     68  NH2       30.7060    1.7520   12.2790 N.pl3  88  ARG88       0.1354
     69  N         24.1980    4.7960   12.6560 N.am   89  TRP89      -0.1962
     70  CA        23.6070    5.5310   11.5200 C.3    89  TRP89       0.1771
     71  C         22.1990    5.8410   12.0000 C.2    89  TRP89       0.2620
     72  O         21.5150    4.8990   12.4280 O.2    89  TRP89      -0.2715
     73  CB        23.6720    4.6850   10.2550 C.3    89  TRP89       0.0590
     74  CG        24.5640    3.4270   10.3850 C.ar   89  TRP89       0.0006
     75  CD1       24.1630    2.1760   10.6620 C.ar   89  TRP89       0.0946
     76  CD2       25.9830    3.3860   10.2180 C.ar   89  TRP89       0.0152
     77  NE1       25.3250    1.3400   10.6730 N.ar   89  TRP89      -0.2442
     78  CE2       26.3820    2.0670   10.4120 C.ar   89  TRP89       0.0810
     79  CE3       26.9520    4.3540    9.9250 C.ar   89  TRP89       0.0012
     80  CZ2       27.7150    1.6460   10.3280 C.ar   89  TRP89       0.0191
     81  CZ3       28.2930    3.9210    9.8430 C.ar   89  TRP89       0.0001
     82  CH2       28.6540    2.6310   10.0360 C.ar   89  TRP89       0.0015
     83  N         21.7460    7.0850   11.9860 N.am   90  GLY90      -0.1940
     84  CA        20.3620    7.3520   12.3840 C.3    90  GLY90       0.1998
     85  C         20.0490    6.8610   13.7790 C.2    90  GLY90       0.2481
     86  O         19.1640    6.0090   13.9760 O.2    90  GLY90      -0.2729
     87  N         20.7470    7.3970   14.7680 N.am   91  PRO91      -0.2715
     88  CA        20.4590    6.9750   16.1490 C.3    91  PRO91       0.1536
     89  C         19.0590    7.4220   16.5200 C.2    91  PRO91       0.2598
     90  O         18.3470    6.8020   17.2940 O.2    91  PRO91      -0.2715
     91  CB        21.4960    7.7370   16.9640 C.3    91  PRO91       0.0310
     92  CG        21.8690    8.9140   16.1340 C.3    91  PRO91       0.0237
     93  CD        21.8060    8.4110   14.7190 C.3    91  PRO91       0.0939
     94  N         18.5990    8.5470   15.9650 N.am   92  ARG92      -0.1978
     95  CA        17.2520    8.9670   16.3500 C.3    92  ARG92       0.1597
     96  C         16.1830    8.3310   15.4860 C.2    92  ARG92       0.2287
     97  O         16.3250    8.0840   14.3070 O.2    92  ARG92      -0.2864
     98  CB        17.1430   10.4920   16.2360 C.3    92  ARG92       0.0334
     99  CG        17.9970   11.1780   17.3000 C.3    92  ARG92       0.0492
    100  CD        17.5670   12.6210   17.5030 C.3    92  ARG92       0.2205
    101  NE        18.6770   13.3670   18.1070 N.pl3  92  ARG92      -0.0865
    102  CZ        18.8980   13.6090   19.3890 C.cat  92  ARG92       0.5346
    103  NH1       18.0670   13.1670   20.3260 N.pl3  92  ARG92       0.1354
    104  NH2       19.9730   14.3100   19.7330 N.pl3  92  ARG92       0.1354
    105  N         14.2380   12.3810   12.8580 N.3    95  ASP95      -0.1239
    106  CA        15.1600   13.4570   12.5970 C.3    95  ASP95       0.1674
    107  C         14.3570   14.5650   11.9240 C.2    95  ASP95       0.2266
    108  O         13.5990   14.3000   11.0030 O.2    95  ASP95      -0.2867
    109  CB        16.2370   13.0830   11.5950 C.3    95  ASP95       0.1410
    110  CG        17.0350   11.8970   12.1150 C.2    95  ASP95       0.3668
    111  OD1       17.3580   11.9370   13.3120 O.co2  95  ASP95      -0.2456
    112  OD2       17.2520   10.9900   11.2860 O.co2  95  ASP95      -0.2456
    113  N         15.6150   17.9330   10.2670 N.3    97  ASP97      -0.1239
    114  CA        16.8040   18.6680    9.9060 C.3    97  ASP97       0.1674
    115  C         16.4010   19.9000    9.1480 C.2    97  ASP97       0.2266
    116  O         15.6500   19.7810    8.1920 O.2    97  ASP97      -0.2867
    117  CB        17.7090   17.8380    8.9830 C.3    97  ASP97       0.1410
    118  CG        18.2210   16.6480    9.7820 C.2    97  ASP97       0.3668
    119  OD1       18.9070   16.9720   10.7620 O.co2  97  ASP97      -0.2456
    120  OD2       17.8920   15.5270    9.3850 O.co2  97  ASP97      -0.2456
    121  N         21.8350   22.0960    4.9520 N.3   115  HIS115     -0.1226
    122  CA        22.1850   20.8990    5.6880 C.3   115  HIS115      0.1752
    123  C         23.4160   20.2610    5.0690 C.2   115  HIS115      0.2596
    124  O         23.6100   20.1760    3.8650 O.2   115  HIS115     -0.2718
    125  CB        20.9820   19.9810    5.6180 C.3   115  HIS115      0.0759
    126  CG        21.3260   18.6720    6.2010 C.ar  115  HIS115      0.0818
    127  ND1       21.9840   17.6840    5.5030 N.ar  115  HIS115     -0.2268
    128  CD2       21.0340   18.2150    7.4340 C.ar  115  HIS115      0.1154
    129  CE1       22.1160   16.6520    6.3150 C.ar  115  HIS115      0.1986
    130  NE2       21.5440   16.9470    7.4910 N.ar  115  HIS115     -0.2212
    131  N         24.2740   19.8460    5.9900 N.am  116  TYR116     -0.1976
    132  CA        25.6460   19.6460    5.5930 C.3   116  TYR116      0.1639
    133  C         25.8150   18.5420    4.5670 C.2   116  TYR116      0.2290
    134  O         26.8540   18.4920    3.9330 O.2   116  TYR116     -0.2864
    135  CB        26.4470   19.2740    6.8290 C.3   116  TYR116      0.0560
    136  CG        26.2890   17.8170    7.2410 C.ar  116  TYR116     -0.0198
    137  CD1       25.1390   17.3690    7.8560 C.ar  116  TYR116     -0.0009
    138  CD2       27.2910   16.8810    7.0190 C.ar  116  TYR116     -0.0009
    139  CE1       25.0320   16.0340    8.2170 C.ar  116  TYR116      0.0417
    140  CE2       27.2010   15.5460    7.3840 C.ar  116  TYR116      0.0417
    141  CZ        26.0320   15.1230    7.9950 C.ar  116  TYR116      0.1957
    142  OH        25.8610   13.8160    8.3950 O.3   116  TYR116     -0.2866
    143  N         21.9910   13.3770   -0.5070 N.3   121  ARG121     -0.1245
    144  CA        20.9350   12.5260    0.0330 C.3   121  ARG121      0.1563
    145  C         19.6880   12.6880   -0.8040 C.2   121  ARG121      0.2260
    146  O         18.9850   13.6640   -0.6240 O.2   121  ARG121     -0.2867
    147  CB        20.5840   12.8580    1.4850 C.3   121  ARG121      0.0307
    148  CG        21.7980   12.5420    2.3460 C.3   121  ARG121      0.0489
    149  CD        21.6650   13.2280    3.6890 C.3   121  ARG121      0.2205
    150  NE        22.8330   12.8580    4.4530 N.pl3 121  ARG121     -0.0865
    151  CZ        22.8090   12.7570    5.7760 C.cat 121  ARG121      0.5346
    152  NH1       21.6760   13.0190    6.4090 N.pl3 121  ARG121      0.1354
    153  NH2       23.9370   12.4030    6.3660 N.pl3 121  ARG121      0.1354
    154  N         17.1350   11.2170   -0.3390 N.3   123  PHE123     -0.1241
    155  CA        15.9850   11.2130    0.5510 C.3   123  PHE123      0.1605
    156  C         15.7340   12.5980    1.1090 C.2   123  PHE123      0.2264
    157  O         14.6710   12.8030    1.6960 O.2   123  PHE123     -0.2867
    158  CB        16.2000   10.1940    1.6710 C.3   123  PHE123      0.0534
    159  CG        17.3610   10.4410    2.6060 C.ar  123  PHE123     -0.0203
    160  CD1       17.3670   11.3710    3.6410 C.ar  123  PHE123     -0.0042
    161  CD2       18.4940    9.6750    2.3820 C.ar  123  PHE123     -0.0042
    162  CE1       18.4890   11.5380    4.3960 C.ar  123  PHE123     -0.0003
    163  CE2       19.6090    9.7860    3.1770 C.ar  123  PHE123     -0.0003
    164  CZ        19.5730   10.7090    4.2060 C.ar  123  PHE123     -0.0000
@<TRIPOS>BOND
     1   145   146    2
     2   145   144    1
     3   143   144    1
     4    17    18    1
     5    17    16    1
     6   154   155    1
     7    18    12    1
     8   144   147    1
     9   155   156    1
    10   155   158    1
    11    16    13    1
    12   156   157    2
    13    11     9    1
    14    12    13    1
    15    12     7   am
    16     6     9    1
    17     6     5    1
    18     6     7    1
    19   147   148    1
    20     9    10    1
    21   158   159    1
    22    13    14    1
    23     7     8    2
    24   148   149    1
    25   161   159   ar
    26   161   163   ar
    27    15    14    2
    28   159   160   ar
    29    14    19   am
    30    53    52    2
    31   163   164   ar
    32    22    21    2
    33    32    31    1
    34   160   162   ar
    35    54    55    1
    36    54    51    1
    37   149   150    1
    38   124   123    2
    39   134   133    2
    40    52    51    1
    41    19    25    1
    42    19    20    1
    43    29    28    2
    44    27    30    1
    45    27    26    1
    46    27    28    1
    47    56    55    2
    48   164   162   ar
    49    21    26   am
    50    21    20    1
    51    25    24    1
    52    37    36    2
    53   150   151    2
    54    55    57   am
    55    30    31    1
    56    41    40    2
    57    51    50    1
    58   133   132    1
    59    28    34   am
    60    31    33    1
    61    20    23    1
    62   121   122    1
    63   123   122    1
    64   123   131   am
    65    24    23    1
    66   127   126   ar
    67   127   129   ar
    68   132   131    1
    69   132   135    1
    70   125   122    1
    71   125   126    1
    72    36    35    1
    73    40    39    1
    74   151   153    1
    75   151   152    1
    76    38    39    1
    77    34    35    1
    78   126   128   ar
    79   129   130   ar
    80    42    39    1
    81    42    43    1
    82   135   136    1
    83   138   136   ar
    84   138   140   ar
    85   136   137   ar
    86    44    43   ar
    87    44    46   ar
    88    43    45   ar
    89   140   141   ar
    90   128   130   ar
    91   137   139   ar
    92   141   139   ar
    93   141   142    1
    94   116   115    2
    95    46    48   ar
    96    45    47   ar
    97     2     1    1
    98     2     3    1
    99   117   118    1
   100   117   114    1
   101   115   114    1
   102    48    47   ar
   103    48    49    1
   104   120   118   ar
   105   118   119   ar
   106     3     4    2
   107    81    79   ar
   108    81    82   ar
   109   114   113    1
   110    79    76   ar
   111    82    80   ar
   112    76    74   ar
   113    76    78   ar
   114    73    74    1
   115    73    70    1
   116    80    78   ar
   117    74    75   ar
   118    78    77   ar
   119    75    77   ar
   120   108   107    2
   121   112   110   ar
   122    70    71    1
   123    70    69    1
   124   109   110    1
   125   109   106    1
   126   107   106    1
   127    83    71   am
   128    83    84    1
   129    71    72    2
   130   110   111   ar
   131    68    66    1
   132    84    85    1
   133   106   105    1
   134    69    60   am
   135    67    66    1
   136    66    65    2
   137    61    60    2
   138    60    59    1
   139    85    86    2
   140    85    87   am
   141    65    64    1
   142    62    59    1
   143    62    63    1
   144    97    96    2
   145    59    58    1
   146    93    87    1
   147    93    92    1
   148    87    88    1
   149    64    63    1
   150    96    95    1
   151    94    95    1
   152    94    89   am
   153    92    91    1
   154    88    89    1
   155    88    91    1
   156    98    95    1
   157    98    99    1
   158    89    90    2
   159    99   100    1
   160   100   101    1
   161   101   102    2
   162   102   104    1
   163   102   103    1
