@<TRIPOS>MOLECULE
tmp/1rb3B01.pdb
 154 148 0 0 0
SMALL
GASTEIGER

@<TRIPOS>ATOM
      1  N         -3.4890   32.9630    7.6120 N.3    15  GLY15      -0.1210
      2  CA        -2.9680   33.9980    6.7560 C.3    15  GLY15       0.1956
      3  C         -3.9430   34.6340    5.8020 C.2    15  GLY15       0.2612
      4  O         -5.0860   34.2450    5.7260 O.2    15  GLY15      -0.2717
      5  N         -3.4230   35.6340    5.0910 N.am   16  MET16      -0.1965
      6  CA        -4.1430   36.4050    4.1190 C.3    16  MET16       0.1736
      7  C         -3.1600   37.0650    3.1700 C.2    16  MET16       0.2616
      8  O         -1.9820   36.7070    3.1460 O.2    16  MET16      -0.2715
      9  CB        -5.0550   37.4130    4.8100 C.3    16  MET16       0.0427
     10  CG        -4.7560   37.5980    6.2870 C.3    16  MET16       0.0599
     11  SD        -5.5980   39.0270    6.9840 S.3    16  MET16      -0.1393
     12  CE        -4.7840   40.3420    6.0850 C.3    16  MET16       0.0692
     13  N         -3.6410   38.0150    2.3870 N.am   17  GLU17      -0.1977
     14  CA        -2.7810   38.7270    1.4590 C.3    17  GLU17       0.1602
     15  C         -1.7050   39.4830    2.2220 C.2    17  GLU17       0.2287
     16  O         -0.5130   39.3180    1.9640 O.2    17  GLU17      -0.2864
     17  CB        -3.6110   39.6730    0.5890 C.3    17  GLU17       0.0415
     18  CG        -2.8020   40.4610   -0.4270 C.3    17  GLU17       0.1163
     19  CD        -3.6650   41.3880   -1.2620 C.2    17  GLU17       0.3649
     20  OE1       -4.8940   41.4160   -1.0390 O.co2  17  GLU17      -0.2457
     21  OE2       -3.1120   42.0860   -2.1380 O.co2  17  GLU17      -0.2457
     22  N          7.9890   28.6100    3.3230 N.3    43  GLY43      -0.1210
     23  CA         7.6170   28.7810    1.9650 C.3    43  GLY43       0.1956
     24  C          7.9480   30.2210    1.6190 C.2    43  GLY43       0.2612
     25  O          8.1710   31.0770    2.4800 O.2    43  GLY43      -0.2717
     26  N          7.9580   30.4720    0.3280 N.am   44  ARG44      -0.1965
     27  CA         8.2520   31.7370   -0.2320 C.3    44  ARG44       0.1729
     28  C          7.4480   32.8730    0.3000 C.2    44  ARG44       0.2616
     29  O          7.9850   33.9520    0.6040 O.2    44  ARG44      -0.2715
     30  CB         8.0520   31.7010   -1.7000 C.3    44  ARG44       0.0348
     31  CG         9.0680   32.6910   -2.1950 C.3    44  ARG44       0.0492
     32  CD         8.5390   33.6000   -3.2520 C.3    44  ARG44       0.2205
     33  NE         7.6890   32.8720   -4.1570 N.pl3  44  ARG44      -0.0865
     34  CZ         6.6980   33.4850   -4.7760 C.cat  44  ARG44       0.5346
     35  NH1        6.4620   34.7970   -4.5770 N.pl3  44  ARG44       0.1354
     36  NH2        5.9310   32.7640   -5.5980 N.pl3  44  ARG44       0.1354
     37  N          6.1530   32.6330    0.3920 N.am   45  HIS45      -0.1959
     38  CA         5.2650   33.6630    0.8900 C.3    45  HIS45       0.1787
     39  C          5.6720   34.0680    2.2930 C.2    45  HIS45       0.2620
     40  O          5.7420   35.2530    2.5930 O.2    45  HIS45      -0.2715
     41  CB         3.7550   33.3720    0.7180 C.3    45  HIS45       0.0785
     42  CG         3.3930   33.1280   -0.7400 C.ar   45  HIS45       0.0821
     43  ND1        3.6380   34.0840   -1.7480 N.ar   45  HIS45      -0.2267
     44  CD2        2.8090   32.0470   -1.3610 C.ar   45  HIS45       0.1154
     45  CE1        3.2110   33.5610   -2.9090 C.ar   45  HIS45       0.1986
     46  NE2        2.7070   32.3400   -2.7130 N.ar   45  HIS45      -0.2212
     47  N          5.9590   33.0620    3.1630 N.am   46  THR46      -0.1951
     48  CA         6.3930   33.3510    4.5380 C.3    46  THR46       0.1897
     49  C          7.8300   34.0630    4.5380 C.2    46  THR46       0.2313
     50  O          8.2210   34.9230    5.3840 O.2    46  THR46      -0.2863
     51  CB         6.3900   32.0340    5.3800 C.3    46  THR46       0.1794
     52  OG1        5.1330   31.3300    5.4270 O.3    46  THR46      -0.2208
     53  CG2        6.8980   32.3010    6.7940 C.3    46  THR46       0.0378
     54  N         11.7260   27.2480    0.2110 N.3    62  LEU62      -0.1231
     55  CA        11.1640   26.4290   -0.8490 C.3    62  LEU62       0.1693
     56  C         10.5840   27.3030   -1.9530 C.2    62  LEU62       0.2593
     57  O          9.7800   28.2060   -1.7410 O.2    62  LEU62      -0.2718
     58  CB         9.9960   25.5400   -0.3430 C.3    62  LEU62       0.0284
     59  CG        10.3620   24.1570    0.2350 C.3    62  LEU62       0.0019
     60  CD1        9.1470   23.6310    0.9800 C.3    62  LEU62       0.0001
     61  CD2       10.6800   23.1660   -0.8780 C.3    62  LEU62       0.0001
     62  N         10.9690   27.0460   -3.1670 N.am   63  SER63      -0.1938
     63  CA        10.4120   27.8270   -4.2480 C.3    63  SER63       0.2055
     64  C         10.6180   27.0540   -5.4840 C.2    63  SER63       0.2644
     65  O         11.6910   26.4970   -5.5820 O.2    63  SER63      -0.2714
     66  CB        11.0380   29.1830   -4.4910 C.3    63  SER63       0.2130
     67  OG        10.3980   29.7390   -5.6350 O.3    63  SER63      -0.2179
     68  N          9.6320   27.0200   -6.4070 N.am   64  SER64      -0.1935
     69  CA         9.8650   26.2770   -7.6410 C.3    64  SER64       0.2055
     70  C         10.7780   27.1090   -8.5780 C.2    64  SER64       0.2642
     71  O         11.1100   26.7270   -9.6600 O.2    64  SER64      -0.2714
     72  CB         8.5960   25.8710   -8.3420 C.3    64  SER64       0.2130
     73  OG         7.9070   27.0680   -8.5820 O.3    64  SER64      -0.2179
     74  N         11.2040   28.2600   -8.1390 N.am   65  GLN65      -0.1976
     75  CA        12.0290   29.1060   -8.9270 C.3    65  GLN65       0.1601
     76  C         13.3260   29.4480   -8.2450 C.2    65  GLN65       0.2287
     77  O         13.4450   29.4440   -7.0170 O.2    65  GLN65      -0.2864
     78  CB        11.2500   30.4090   -9.0820 C.3    65  GLN65       0.0394
     79  CG         9.9150   30.1690   -9.8200 C.3    65  GLN65       0.0908
     80  CD        10.1000   29.6830  -11.2680 C.2    65  GLN65       0.2608
     81  OE1       10.1600   28.4410  -11.5320 O.2    65  GLN65      -0.2717
     82  NE2       10.1810   30.6630  -12.2060 N.am   65  GLN65      -0.0878
     83  N         14.0450   23.1460   -4.1020 N.3    76  LYS76      -0.1231
     84  CA        12.8750   22.8700   -4.9880 C.3    76  LYS76       0.1693
     85  C         11.9100   21.7520   -4.6230 C.2    76  LYS76       0.2593
     86  O         10.8540   21.5800   -5.2660 O.2    76  LYS76      -0.2718
     87  CB        13.3350   22.5260   -6.3900 C.3    76  LYS76       0.0285
     88  CG        14.0730   23.5860   -7.1680 C.3    76  LYS76       0.0035
     89  CD        13.6020   23.4910   -8.6110 C.3    76  LYS76       0.0206
     90  CE        14.4510   24.2640   -9.6010 C.3    76  LYS76       0.1093
     91  NZ        15.5080   23.4430  -10.2140 N.3    76  LYS76      -0.1314
     92  N         12.2710   20.9750   -3.6130 N.am   77  SER77      -0.1938
     93  CA        11.4580   19.8790   -3.1530 C.3    77  SER77       0.2055
     94  C         11.5020   19.7930   -1.6170 C.2    77  SER77       0.2642
     95  O         12.3480   20.3800   -0.9760 O.2    77  SER77      -0.2714
     96  CB        11.9290   18.5640   -3.7980 C.3    77  SER77       0.2130
     97  OG        13.1640   18.0790   -3.2720 O.3    77  SER77      -0.2179
     98  N         10.5670   19.0540   -1.0420 N.am   78  VAL78      -0.1977
     99  CA        10.4790   18.8250    0.3830 C.3    78  VAL78       0.1596
    100  C         11.7340   18.0210    0.7610 C.2    78  VAL78       0.2287
    101  O         12.3470   18.1810    1.8260 O.2    78  VAL78      -0.2864
    102  CB         9.2230   17.9540    0.5680 C.3    78  VAL78       0.0276
    103  CG1        9.2910   17.0390    1.7610 C.3    78  VAL78       0.0022
    104  CG2        7.9700   18.7820    0.6490 C.3    78  VAL78       0.0022
    105  N          4.1850   28.5840    5.0010 N.3    96  GLY96      -0.1210
    106  CA         2.8270   28.9050    5.2920 C.3    96  GLY96       0.1956
    107  C          2.0170   27.7110    5.2150 C.2    96  GLY96       0.2612
    108  O          2.4850   26.6240    5.5740 O.2    96  GLY96      -0.2717
    109  N          0.7820   27.9370    4.7240 N.am   97  GLY97      -0.1942
    110  CA        -0.1590   26.8420    4.5890 C.3    97  GLY97       0.2014
    111  C          0.2290   25.7040    3.6280 C.2    97  GLY97       0.2639
    112  O          0.1090   24.5230    3.9600 O.2    97  GLY97      -0.2714
    113  N          0.6890   26.0060    2.4250 N.am   98  ARG98      -0.1963
    114  CA         1.0250   24.9020    1.5380 C.3    98  ARG98       0.1729
    115  C          2.1510   24.0280    2.0820 C.2    98  ARG98       0.2616
    116  O          2.1580   22.8450    1.8130 O.2    98  ARG98      -0.2715
    117  CB         1.2080   25.3350    0.0910 C.3    98  ARG98       0.0348
    118  CG         1.7260   24.3070   -0.9250 C.3    98  ARG98       0.0492
    119  CD         2.0820   25.0230   -2.2430 C.3    98  ARG98       0.2205
    120  NE         2.7150   24.1990   -3.2660 N.pl3  98  ARG98      -0.0865
    121  CZ         3.3810   24.5780   -4.3510 C.cat  98  ARG98       0.5346
    122  NH1        3.5810   25.8370   -4.7120 N.pl3  98  ARG98       0.1354
    123  NH2        3.8710   23.6090   -5.1160 N.pl3  98  ARG98       0.1354
    124  N          3.0730   24.6420    2.8420 N.am   99  VAL99      -0.1977
    125  CA         4.2130   23.9680    3.4380 C.3    99  VAL99       0.1596
    126  C          3.7990   23.0570    4.5900 C.2    99  VAL99       0.2287
    127  O          4.2150   21.9090    4.7210 O.2    99  VAL99      -0.2864
    128  CB         5.2470   25.0030    3.9430 C.3    99  VAL99       0.0276
    129  CG1        6.3730   24.3340    4.7310 C.3    99  VAL99       0.0022
    130  CG2        5.8790   25.7220    2.7730 C.3    99  VAL99       0.0022
    131  N          2.2790   19.8510    3.5370 N.3   102  GLN102     -0.1245
    132  CA         3.1710   18.8430    3.0600 C.3   102  GLN102      0.1566
    133  C          3.8300   18.1340    4.2560 C.2   102  GLN102      0.2260
    134  O          3.8790   16.9080    4.3680 O.2   102  GLN102     -0.2867
    135  CB         4.2520   19.4770    2.1910 C.3   102  GLN102      0.0367
    136  CG         3.6490   19.8100    0.8310 C.3   102  GLN102      0.0905
    137  CD         4.4930   20.7310   -0.0070 C.2   102  GLN102      0.2608
    138  OE1        5.0730   20.3510   -1.0330 O.2   102  GLN102     -0.2717
    139  NE2        4.5050   21.9880    0.3950 N.am  102  GLN102     -0.0878
    140  N         -7.6440   33.7510    4.0940 N.3   122  ASP122     -0.1225
    141  CA        -7.7110   32.7140    3.1480 C.3   122  ASP122      0.1805
    142  C         -7.0360   31.3960    3.4630 C.2   122  ASP122      0.2598
    143  O         -7.5240   30.3180    3.0740 O.2   122  ASP122     -0.2718
    144  CB        -7.2850   33.3510    1.8180 C.3   122  ASP122      0.1424
    145  CG        -6.1340   34.3360    1.8890 C.2   122  ASP122      0.3668
    146  OD1       -4.9660   34.0150    2.0970 O.co2 122  ASP122     -0.2456
    147  OD2       -6.5130   35.5700    1.6280 O.co2 122  ASP122     -0.2456
    148  N         -5.9150   31.4940    4.1690 N.am  123  THR123     -0.1953
    149  CA        -5.1200   30.3600    4.5300 C.3   123  THR123      0.1897
    150  C         -5.4030   29.7600    5.8890 C.2   123  THR123      0.2313
    151  O         -5.6100   30.4680    6.8510 O.2   123  THR123     -0.2863
    152  CB        -3.6950   30.8320    4.3660 C.3   123  THR123      0.1794
    153  OG1       -3.6780   31.4890    3.1110 O.3   123  THR123     -0.2208
    154  CG2       -2.8080   29.6420    4.3440 C.3   123  THR123      0.0378
@<TRIPOS>BOND
     1    82    80   am
     2    81    80    2
     3    80    79    1
     4    91    90    1
     5    79    78    1
     6    71    70    2
     7    90    89    1
     8    78    75    1
     9    75    76    1
    10    75    74    1
    11    89    88    1
    12    73    72    1
    13    70    74   am
    14    70    69    1
    15    72    69    1
    16    76    77    2
    17    69    68    1
    18    88    87    1
    19    68    64   am
    20    87    84    1
    21    67    66    1
    22    36    34    1
    23    65    64    2
    24    64    63    1
    25    86    85    2
    26   123   121    1
    27    84    85    1
    28    84    83    1
    29    34    35    1
    30    34    33    2
    31   122   121    1
    32    85    92   am
    33    66    63    1
    34   121   120    2
    35    63    62    1
    36    33    32    1
    37    96    97    1
    38    96    93    1
    39    92    93    1
    40   120   119    1
    41    32    31    1
    42    62    56   am
    43    93    94    1
    44    45    46   ar
    45    45    43   ar
    46    46    44   ar
    47   119   118    1
    48    31    30    1
    49    21    19   ar
    50    56    57    2
    51    56    55    1
    52    43    42   ar
    53    30    27    1
    54    94    98   am
    55    94    95    2
    56    44    42   ar
    57    19    20   ar
    58    19    18    1
    59    98    99    1
    60   138   137    2
    61   118   117    1
    62    61    59    1
    63    55    58    1
    64    55    54    1
    65    42    41    1
    66    18    17    1
    67    58    59    1
    68    27    28    1
    69    27    26    1
    70   137   139   am
    71   137   136    1
    72   117   114    1
    73    59    60    1
    74    28    37   am
    75    28    29    2
    76    26    24   am
    77    99   102    1
    78    99   100    1
    79    37    38    1
    80   102   104    1
    81   102   103    1
    82    17    14    1
    83    41    38    1
    84   100   101    2
    85   136   135    1
    86    38    39    1
    87    14    15    1
    88    14    13    1
    89   114   115    1
    90   114   113    1
    91    24    23    1
    92    24    25    2
    93   147   145   ar
    94   116   115    2
    95   144   145    1
    96   144   141    1
    97   145   146   ar
    98    16    15    2
    99    23    22    1
   100   115   124   am
   101   135   132    1
   102    39    40    2
   103    39    47   am
   104    13     7   am
   105   113   111   am
   106   130   128    1
   107   124   125    1
   108   132   131    1
   109   132   133    1
   110   143   142    2
   111   153   152    1
   112     8     7    2
   113   141   142    1
   114   141   140    1
   115    47    48    1
   116     7     6    1
   117   125   128    1
   118   125   126    1
   119   142   148   am
   120   111   112    2
   121   111   110    1
   122   128   129    1
   123     6     9    1
   124     6     5    1
   125   148   149    1
   126   133   134    2
   127   154   152    1
   128   152   149    1
   129   149   150    1
   130    48    49    1
   131    48    51    1
   132    49    50    2
   133   110   109    1
   134   126   127    2
   135   109   107   am
   136     9    10    1
   137   105   106    1
   138     5     3   am
   139   107   106    1
   140   107   108    2
   141    51    52    1
   142    51    53    1
   143     4     3    2
   144     3     2    1
   145   150   151    2
   146    12    11    1
   147    10    11    1
   148     2     1    1
