@<TRIPOS>MOLECULE
tmp/1rbyC00.pdb
 182 177 0 0 0
SMALL
GASTEIGER

@<TRIPOS>ATOM
      1  N        -35.7370   45.1250   12.9690 N.3    37  LYS37      -0.1245
      2  CA       -35.2670   44.3520   11.8150 C.3    37  LYS37       0.1561
      3  C        -34.5480   45.2560   10.8150 C.2    37  LYS37       0.2260
      4  O        -35.0830   46.2900   10.3930 O.2    37  LYS37      -0.2867
      5  CB       -36.4320   43.6410   11.1200 C.3    37  LYS37       0.0271
      6  CG       -37.3140   42.7620   12.0240 C.3    37  LYS37       0.0035
      7  CD       -37.2840   41.2960   11.5930 C.3    37  LYS37       0.0206
      8  CE       -38.4300   40.9480   10.6500 C.3    37  LYS37       0.1093
      9  NZ       -39.0080   39.5800   10.8830 N.3    37  LYS37      -0.1314
     10  N        -36.8610   39.9730   26.6160 N.3    64  ARG64      -0.1245
     11  CA       -37.6300   41.1470   26.1990 C.3    64  ARG64       0.1563
     12  C        -37.2950   42.3950   27.0110 C.2    64  ARG64       0.2260
     13  O        -37.1700   43.4800   26.4480 O.2    64  ARG64      -0.2867
     14  CB       -39.1350   40.8680   26.2970 C.3    64  ARG64       0.0307
     15  CG       -39.6250   39.7160   25.4370 C.3    64  ARG64       0.0489
     16  CD       -41.1140   39.4310   25.5750 C.3    64  ARG64       0.2205
     17  NE       -41.5060   38.2570   24.7970 N.pl3  64  ARG64      -0.0865
     18  CZ       -41.8540   38.2800   23.5150 C.cat  64  ARG64       0.5346
     19  NH1      -41.8750   39.4230   22.8370 N.pl3  64  ARG64       0.1354
     20  NH2      -42.1840   37.1490   22.9070 N.pl3  64  ARG64       0.1354
     21  N        -46.8920   52.2980   17.4300 N.3    85  LEU85      -0.1245
     22  CA       -46.5020   51.0290   16.8480 C.3    85  LEU85       0.1561
     23  C        -47.1840   50.9110   15.4890 C.2    85  LEU85       0.2260
     24  O        -48.4210   50.9160   15.3940 O.2    85  LEU85      -0.2867
     25  CB       -46.8670   49.8370   17.7560 C.3    85  LEU85       0.0270
     26  CG       -46.5060   49.8940   19.2520 C.3    85  LEU85       0.0019
     27  CD1      -46.8770   48.6080   20.0000 C.3    85  LEU85       0.0001
     28  CD2      -45.0510   50.2110   19.4700 C.3    85  LEU85       0.0001
     29  N        -46.9750   48.3520   12.5580 N.3    87  GLY87      -0.1210
     30  CA       -46.4680   47.0850   12.0720 C.3    87  GLY87       0.1956
     31  C        -45.2860   46.5620   12.8850 C.2    87  GLY87       0.2612
     32  O        -44.5360   45.7100   12.4030 O.2    87  GLY87      -0.2717
     33  N        -45.1160   47.0760   14.1060 N.am   88  PHE88      -0.1962
     34  CA       -44.1490   46.5270   15.0670 C.3    88  PHE88       0.1771
     35  C        -44.6240   45.1580   15.5660 C.2    88  PHE88       0.2619
     36  O        -45.7730   45.0120   16.0020 O.2    88  PHE88      -0.2715
     37  CB       -43.9360   47.4890   16.2450 C.3    88  PHE88       0.0574
     38  CG       -42.7790   47.1170   17.1340 C.ar   88  PHE88      -0.0200
     39  CD1      -41.4730   47.1300   16.6520 C.ar   88  PHE88      -0.0042
     40  CD2      -42.9950   46.7600   18.4660 C.ar   88  PHE88      -0.0042
     41  CE1      -40.3900   46.7910   17.4860 C.ar   88  PHE88      -0.0003
     42  CE2      -41.9240   46.4210   19.3080 C.ar   88  PHE88      -0.0003
     43  CZ       -40.6210   46.4400   18.8160 C.ar   88  PHE88      -0.0000
     44  N        -43.7390   44.1650   15.5100 N.am   89  MET89      -0.1963
     45  CA       -44.1450   42.7730   15.7110 C.3    89  MET89       0.1736
     46  C        -43.6100   42.1010   16.9850 C.2    89  MET89       0.2616
     47  O        -43.7610   40.8860   17.1640 O.2    89  MET89      -0.2715
     48  CB       -43.7720   41.9510   14.4770 C.3    89  MET89       0.0427
     49  CG       -44.6920   42.1620   13.2830 C.3    89  MET89       0.0599
     50  SD       -46.4390   41.8580   13.6560 S.3    89  MET89      -0.1393
     51  CE       -47.1360   43.4540   13.3130 C.3    89  MET89       0.0692
     52  N        -42.9890   42.8850   17.8630 N.am   90  ARG90      -0.1963
     53  CA       -42.5320   42.3680   19.1530 C.3    90  ARG90       0.1729
     54  C        -43.4860   42.7700   20.2680 C.2    90  ARG90       0.2616
     55  O        -43.7490   43.9620   20.4620 O.2    90  ARG90      -0.2715
     56  CB       -41.1110   42.8520   19.4820 C.3    90  ARG90       0.0348
     57  CG       -40.0700   42.4690   18.4490 C.3    90  ARG90       0.0492
     58  CD       -40.0140   40.9770   18.1490 C.3    90  ARG90       0.2205
     59  NE       -39.6500   40.1870   19.3170 N.pl3  90  ARG90      -0.0865
     60  CZ       -39.6480   38.8560   19.3490 C.cat  90  ARG90       0.5346
     61  NH1      -39.9920   38.1610   18.2710 N.pl3  90  ARG90       0.1354
     62  NH2      -39.2870   38.2150   20.4580 N.pl3  90  ARG90       0.1354
     63  N        -44.0160   41.7680   20.9700 N.am   91  ILE91      -0.1963
     64  CA       -44.7600   41.9800   22.2080 C.3    91  ILE91       0.1727
     65  C        -43.8380   42.5770   23.2690 C.2    91  ILE91       0.2616
     66  O        -42.7410   42.0670   23.5250 O.2    91  ILE91      -0.2715
     67  CB       -45.3930   40.6520   22.7110 C.3    91  ILE91       0.0290
     68  CG1      -46.4250   40.1320   21.7000 C.3    91  ILE91       0.0022
     69  CG2      -46.0590   40.8550   24.0620 C.3    91  ILE91       0.0023
     70  CD1      -46.8980   38.6960   21.9790 C.3    91  ILE91       0.0001
     71  N        -44.2870   43.6650   23.8770 N.am   92  LEU92      -0.1977
     72  CA       -43.4570   44.4180   24.8050 C.3    92  LEU92       0.1596
     73  C        -43.6780   43.9780   26.2450 C.2    92  LEU92       0.2287
     74  O        -44.7940   43.5620   26.6130 O.2    92  LEU92      -0.2864
     75  CB       -43.7290   45.9100   24.6530 C.3    92  LEU92       0.0297
     76  CG       -43.1660   46.5740   23.3950 C.3    92  LEU92       0.0022
     77  CD1      -43.9880   47.8010   23.0170 C.3    92  LEU92       0.0001
     78  CD2      -41.7000   46.9420   23.5800 C.3    92  LEU92       0.0001
     79  N        -44.2390   48.7510   28.9360 N.3    97  VAL97      -0.1245
     80  CA       -45.6510   49.0940   28.7110 C.3    97  VAL97       0.1561
     81  C        -46.1810   50.0440   29.8050 C.2    97  VAL97       0.2260
     82  O        -46.7560   51.0950   29.4940 O.2    97  VAL97      -0.2867
     83  CB       -46.5230   47.8030   28.5710 C.3    97  VAL97       0.0252
     84  CG1      -48.0240   48.1070   28.6290 C.3    97  VAL97       0.0019
     85  CG2      -46.1710   47.0660   27.2760 C.3    97  VAL97       0.0019
     86  N        -51.2010   51.6540   19.2740 N.3   106  ASN106     -0.1225
     87  CA       -51.0330   50.6170   18.2700 C.3   106  ASN106      0.1785
     88  C        -52.1570   50.6520   17.2420 C.2   106  ASN106      0.2597
     89  O        -53.2930   50.9660   17.5910 O.2   106  ASN106     -0.2718
     90  CB       -50.9990   49.2400   18.9410 C.3   106  ASN106      0.1169
     91  CG       -50.8420   48.1230   17.9450 C.2   106  ASN106      0.2627
     92  OD1      -51.8780   47.3050   17.8000 O.2   106  ASN106     -0.2716
     93  ND2      -49.8010   48.0040   17.2940 N.am  106  ASN106     -0.0877
     94  N        -51.8340   50.3090   15.9960 N.am  107  ILE107     -0.1966
     95  CA       -52.8340   50.0730   14.9500 C.3   107  ILE107      0.1727
     96  C        -53.0280   48.5650   14.7410 C.2   107  ILE107      0.2616
     97  O        -52.0660   47.8310   14.4990 O.2   107  ILE107     -0.2715
     98  CB       -52.4610   50.8040   13.6050 C.3   107  ILE107      0.0290
     99  CG1      -53.5810   50.6730   12.5670 C.3   107  ILE107      0.0022
    100  CG2      -51.1460   50.2480   12.9720 C.3   107  ILE107      0.0023
    101  CD1      -54.8880   51.4490   12.8870 C.3   107  ILE107      0.0001
    102  N        -54.2750   48.1020   14.8440 N.am  108  HIS108     -0.1960
    103  CA       -54.5790   46.6790   14.6620 C.3   108  HIS108      0.1772
    104  C        -55.6390   46.5000   13.5640 C.2   108  HIS108      0.2462
    105  O        -56.6410   47.2170   13.5610 O.2   108  HIS108     -0.2730
    106  CB       -55.0620   46.0800   15.9820 C.3   108  HIS108      0.0785
    107  CG       -55.5150   44.6550   15.8660 C.ar  108  HIS108      0.0821
    108  ND1      -56.7500   44.1280   15.6920 N.ar  108  HIS108     -0.2267
    109  CD2      -54.6430   43.5870   15.8910 C.ar  108  HIS108      0.1154
    110  CE1      -56.6060   42.7660   15.6210 C.ar  108  HIS108      0.1986
    111  NE2      -55.3240   42.4630   15.7450 N.ar  108  HIS108     -0.2212
    112  N        -55.4320   45.5680   12.6250 N.am  109  PRO109     -0.2727
    113  CA       -56.3230   45.4620   11.4640 C.3   109  PRO109      0.1402
    114  C        -57.5630   44.5950   11.7120 C.2   109  PRO109      0.2269
    115  O        -57.8530   43.6930   10.9220 O.2   109  PRO109     -0.2865
    116  CB       -55.4110   44.8610   10.3890 C.3   109  PRO109      0.0296
    117  CG       -54.4870   43.9620   11.1670 C.3   109  PRO109      0.0237
    118  CD       -54.3480   44.5740   12.5600 C.3   109  PRO109      0.0939
    119  N        -54.5990   39.3300   17.6480 N.3   117  GLY117     -0.1210
    120  CA       -53.4430   38.5850   17.1660 C.3   117  GLY117      0.1956
    121  C        -52.9570   39.0550   15.8010 C.2   117  GLY117      0.2612
    122  O        -53.6460   39.8140   15.1110 O.2   117  GLY117     -0.2717
    123  N        -51.7740   38.5780   15.4050 N.am  118  SER118     -0.1952
    124  CA       -51.0770   39.0690   14.2060 C.3   118  SER118      0.1924
    125  C        -51.6550   38.5890   12.8630 C.2   118  SER118      0.2314
    126  O        -51.1630   39.0010   11.7960 O.2   118  SER118     -0.2863
    127  CB       -49.5870   38.6960   14.2700 C.3   118  SER118      0.2116
    128  OG       -49.4240   37.2870   14.1270 O.3   118  SER118     -0.2180
    129  N        -55.6020   51.6720   19.4290 N.3   137  HIS137     -0.1241
    130  CA       -55.7490   51.5290   20.8630 C.3   137  HIS137      0.1621
    131  C        -54.4580   51.8780   21.6010 C.2   137  HIS137      0.2264
    132  O        -53.3520   51.7780   21.0420 O.2   137  HIS137     -0.2867
    133  CB       -56.2070   50.0950   21.2080 C.3   137  HIS137      0.0745
    134  CG       -55.2220   49.0330   20.8260 C.ar  137  HIS137      0.0817
    135  ND1      -54.3730   48.4470   21.7380 N.ar  137  HIS137     -0.2268
    136  CD2      -54.9480   48.4500   19.6330 C.ar  137  HIS137      0.1154
    137  CE1      -53.6090   47.5590   21.1240 C.ar  137  HIS137      0.1986
    138  NE2      -53.9430   47.5380   19.8470 N.ar  137  HIS137     -0.2212
    139  N        -51.6190   50.8690   24.1080 N.3   139  VAL139     -0.1231
    140  CA       -51.0050   49.5760   24.3790 C.3   139  VAL139      0.1692
    141  C        -51.1040   49.2390   25.8740 C.2   139  VAL139      0.2592
    142  O        -50.6830   50.0270   26.7270 O.2   139  VAL139     -0.2718
    143  CB       -49.5400   49.5320   23.8870 C.3   139  VAL139      0.0266
    144  CG1      -48.8390   48.2540   24.3210 C.3   139  VAL139      0.0020
    145  CG2      -49.4990   49.6710   22.3730 C.3   139  VAL139      0.0020
    146  N        -51.7000   48.0830   26.1660 N.am  140  ALA140     -0.1966
    147  CA       -51.7130   47.5230   27.5070 C.3   140  ALA140      0.1728
    148  C        -50.9020   46.2310   27.5240 C.2   140  ALA140      0.2616
    149  O        -50.5230   45.6950   26.4740 O.2   140  ALA140     -0.2715
    150  CB       -53.1590   47.2610   27.9810 C.3   140  ALA140      0.0334
    151  N        -50.6420   45.7330   28.7210 N.am  141  GLU141     -0.1963
    152  CA       -49.8750   44.5080   28.8840 C.3   141  GLU141      0.1733
    153  C        -50.4790   43.3550   28.1020 C.2   141  GLU141      0.2616
    154  O        -49.7580   42.6350   27.4120 O.2   141  GLU141     -0.2715
    155  CB       -49.7630   44.1390   30.3550 C.3   141  GLU141      0.0429
    156  CG       -48.4920   43.3840   30.6840 C.3   141  GLU141      0.1163
    157  CD       -48.2860   43.2380   32.1710 C.2   141  GLU141      0.3649
    158  OE1      -47.8190   44.2130   32.8020 O.co2 141  GLU141     -0.2457
    159  OE2      -48.6080   42.1560   32.7030 O.co2 141  GLU141     -0.2457
    160  N        -51.7940   43.1790   28.2190 N.am  142  ASP142     -0.1957
    161  CA       -52.4940   42.1430   27.4730 C.3   142  ASP142      0.1840
    162  C        -52.5720   42.5910   26.0240 C.2   142  ASP142      0.2622
    163  O        -53.0670   43.6780   25.7180 O.2   142  ASP142     -0.2715
    164  CB       -53.8990   41.8810   28.0300 C.3   142  ASP142      0.1450
    165  CG       -53.8860   41.2620   29.4300 C.2   142  ASP142      0.3671
    166  OD1      -53.2090   40.2220   29.6590 O.co2 142  ASP142     -0.2456
    167  OD2      -54.5560   41.7440   30.3700 O.co2 142  ASP142     -0.2456
    168  N        -52.0710   41.7400   25.1460 N.am  143  VAL143     -0.1963
    169  CA       -51.9430   42.0210   23.7200 C.3   143  VAL143      0.1727
    170  C        -53.2980   42.3360   23.0630 C.2   143  VAL143      0.2616
    171  O        -54.2730   41.6140   23.2720 O.2   143  VAL143     -0.2715
    172  CB       -51.2500   40.8270   23.0310 C.3   143  VAL143      0.0290
    173  CG1      -51.0360   41.0800   21.5730 C.3   143  VAL143      0.0023
    174  CG2      -49.9010   40.5160   23.7330 C.3   143  VAL143      0.0023
    175  N        -53.3500   43.4230   22.2890 N.am  144  ASP144     -0.1971
    176  CA       -54.5580   43.8440   21.5600 C.3   144  ASP144      0.1709
    177  C        -55.8010   44.0070   22.4530 C.2   144  ASP144      0.2293
    178  O        -56.9300   43.7960   21.9910 O.2   144  ASP144     -0.2864
    179  CB       -54.8660   42.8770   20.3930 C.3   144  ASP144      0.1436
    180  CG       -53.8290   42.9460   19.2770 C.2   144  ASP144      0.3671
    181  OD1      -53.2540   44.0340   19.0690 O.co2 144  ASP144     -0.2456
    182  OD2      -53.5170   41.9690   18.5530 O.co2 144  ASP144     -0.2456
@<TRIPOS>BOND
     1   116   117    1
     2   116   113    1
     3     4     3    2
     4     8     9    1
     5     8     7    1
     6     3     2    1
     7   115   114    2
     8     5     2    1
     9     5     6    1
    10   117   118    1
    11   113   114    1
    12   113   112    1
    13     7     6    1
    14   126   125    2
    15     2     1    1
    16    30    29    1
    17    30    31    1
    18    32    31    2
    19   118   112    1
    20    99   101    1
    21    99    98    1
    22   112   104   am
    23   125   124    1
    24    31    33   am
    25   100    98    1
    26    49    50    1
    27    49    48    1
    28    51    50    1
    29   105   104    2
    30   104   103    1
    31    98    95    1
    32    33    34    1
    33   128   127    1
    34   124   127    1
    35   124   123    1
    36    48    45    1
    37    97    96    2
    38   103   102    1
    39   103   106    1
    40    96   102   am
    41    96    95    1
    42    95    94    1
    43    34    35    1
    44    34    37    1
    45   122   121    2
    46    24    23    2
    47   123   121   am
    48    23    22    1
    49    44    35   am
    50    44    45    1
    51    35    36    2
    52   110   108   ar
    53   110   111   ar
    54   108   107   ar
    55    45    46    1
    56   111   109   ar
    57   121   120    1
    58   107   109   ar
    59   107   106    1
    60    94    88   am
    61    37    38    1
    62    39    38   ar
    63    39    41   ar
    64    22    21    1
    65    22    25    1
    66    46    47    2
    67    46    52   am
    68    38    40   ar
    69   120   119    1
    70    88    89    2
    71    88    87    1
    72    93    91   am
    73    41    43   ar
    74    25    26    1
    75    92    91    2
    76    52    53    1
    77    91    90    1
    78    58    57    1
    79    58    59    1
    80    87    90    1
    81    87    86    1
    82    61    60    1
    83    57    56    1
    84    40    42   ar
    85   182   180   ar
    86    43    42   ar
    87   181   180   ar
    88    53    56    1
    89    53    54    1
    90    26    28    1
    91    26    27    1
    92   180   179    1
    93    59    60    2
    94    60    62    1
    95   129   130    1
    96   136   138   ar
    97   136   134   ar
    98   138   137   ar
    99    54    55    2
   100    54    63   am
   101   179   176    1
   102   134   133    1
   103   134   135   ar
   104   130   133    1
   105   130   131    1
   106    63    64    1
   107   132   131    2
   108   137   135   ar
   109   176   175    1
   110   176   177    1
   111   173   172    1
   112    68    70    1
   113    68    67    1
   114   178   177    2
   115    64    67    1
   116    64    65    1
   117   175   170   am
   118   145   143    1
   119    67    69    1
   120    19    18    1
   121    20    18    1
   122    77    76    1
   123   172   169    1
   124   172   174    1
   125   170   171    2
   126   170   169    1
   127    65    66    2
   128    65    71   am
   129    76    78    1
   130    76    75    1
   131    18    17    2
   132   169   168    1
   133    71    72    1
   134   143   144    1
   135   143   140    1
   136   139   140    1
   137   140   141    1
   138    75    72    1
   139    17    16    1
   140    72    73    1
   141   168   162   am
   142    15    16    1
   143    15    14    1
   144   163   162    2
   145   141   146   am
   146   141   142    2
   147   162   161    1
   148   146   147    1
   149    11    14    1
   150    11    10    1
   151    11    12    1
   152    73    74    2
   153    13    12    2
   154   149   148    2
   155    85    83    1
   156   154   153    2
   157   161   164    1
   158   161   160    1
   159   147   148    1
   160   147   150    1
   161   148   151   am
   162   164   165    1
   163   153   160   am
   164   153   152    1
   165    83    84    1
   166    83    80    1
   167    80    79    1
   168    80    81    1
   169   151   152    1
   170   152   155    1
   171   165   166   ar
   172   165   167   ar
   173    82    81    2
   174   155   156    1
   175   156   157    1
   176   157   159   ar
   177   157   158   ar
