@<TRIPOS>MOLECULE
tmp/1rbzB01.pdb
 201 196 0 0 0
SMALL
GASTEIGER

@<TRIPOS>ATOM
      1  N         56.8480    8.3790   53.1680 N.3    37  LYS37      -0.1245
      2  CA        55.8970    8.2950   52.0670 C.3    37  LYS37       0.1561
      3  C         56.3640    7.2490   51.0660 C.2    37  LYS37       0.2260
      4  O         57.5280    7.2220   50.6730 O.2    37  LYS37      -0.2867
      5  CB        55.7540    9.6490   51.3770 C.3    37  LYS37       0.0271
      6  CG        55.0100   10.6800   52.2050 C.3    37  LYS37       0.0035
      7  CD        54.9370   12.0310   51.4930 C.3    37  LYS37       0.0206
      8  CE        54.2520   11.9270   50.1360 C.3    37  LYS37       0.1093
      9  NZ        54.0630   13.2710   49.4950 N.3    37  LYS37      -0.1314
     10  N         53.7750    8.0450   58.2980 N.3    58  HIS58      -0.1226
     11  CA        53.4090    8.8060   59.4910 C.3    58  HIS58       0.1752
     12  C         51.8930    8.8920   59.6790 C.2    58  HIS58       0.2595
     13  O         51.4150    9.0660   60.7960 O.2    58  HIS58      -0.2718
     14  CB        53.9900   10.2210   59.4340 C.3    58  HIS58       0.0759
     15  CG        53.3920   11.0780   58.3660 C.ar   58  HIS58       0.0818
     16  ND1       53.7270   10.9520   57.0360 N.ar   58  HIS58      -0.2268
     17  CD2       52.4690   12.0670   58.4300 C.ar   58  HIS58       0.1154
     18  CE1       53.0380   11.8280   56.3250 C.ar   58  HIS58       0.1986
     19  NE2       52.2660   12.5170   57.1490 N.ar   58  HIS58      -0.2212
     20  N         51.1440    8.7700   58.5890 N.am   59  LYS59      -0.1980
     21  CA        49.6870    8.8350   58.6580 C.3    59  LYS59       0.1596
     22  C         49.0540    7.5730   59.2600 C.2    59  LYS59       0.2287
     23  O         47.8640    7.3180   59.0700 O.2    59  LYS59      -0.2864
     24  CB        49.1020    9.0910   57.2630 C.3    59  LYS59       0.0298
     25  CG        49.2560   10.5280   56.7760 C.3    59  LYS59       0.0038
     26  CD        48.7070   10.6980   55.3630 C.3    59  LYS59       0.0206
     27  CE        48.5880   12.1710   54.9600 C.3    59  LYS59       0.1093
     28  NZ        49.8880   12.9110   54.9730 N.3    59  LYS59      -0.1314
     29  N         53.2210   12.2300   66.7170 N.3    64  ARG64      -0.1245
     30  CA        54.6170   12.2510   66.3070 C.3    64  ARG64       0.1563
     31  C         55.4860   11.3380   67.1590 C.2    64  ARG64       0.2260
     32  O         56.3040   10.5840   66.6300 O.2    64  ARG64      -0.2867
     33  CB        55.1560   13.6800   66.3760 C.3    64  ARG64       0.0307
     34  CG        54.5500   14.6080   65.3490 C.3    64  ARG64       0.0489
     35  CD        55.0620   16.0300   65.5090 C.3    64  ARG64       0.2205
     36  NE        54.9160   16.7820   64.2650 N.pl3  64  ARG64      -0.0865
     37  CZ        53.7560   17.0220   63.6650 C.cat  64  ARG64       0.5346
     38  NH1       52.6240   16.5760   64.1920 N.pl3  64  ARG64       0.1354
     39  NH2       53.7290   17.7010   62.5320 N.pl3  64  ARG64       0.1354
     40  N         68.7410   14.4590   57.3880 N.3    85  LEU85      -0.1245
     41  CA        67.4200   14.7330   56.8440 C.3    85  LEU85       0.1561
     42  C         67.6530   15.3940   55.4830 C.2    85  LEU85       0.2260
     43  O         68.2470   16.4660   55.3950 O.2    85  LEU85      -0.2867
     44  CB        66.6180   15.6920   57.7460 C.3    85  LEU85       0.0270
     45  CG        66.4120   15.3050   59.2200 C.3    85  LEU85       0.0019
     46  CD1       65.4280   16.2630   59.8920 C.3    85  LEU85       0.0001
     47  CD2       65.8920   13.9050   59.3010 C.3    85  LEU85       0.0001
     48  N         65.3070   16.5010   52.6670 N.3    87  GLY87      -0.1210
     49  CA        63.9750   16.6770   52.1240 C.3    87  GLY87       0.1956
     50  C         62.9420   15.9520   52.9800 C.2    87  GLY87       0.2612
     51  O         61.8560   15.6310   52.5070 O.2    87  GLY87      -0.2717
     52  N         63.2950   15.6660   54.2340 N.am   88  PHE88      -0.1962
     53  CA        62.3730   15.0130   55.1700 C.3    88  PHE88       0.1771
     54  C         61.4260   16.1380   55.5820 C.2    88  PHE88       0.2619
     55  O         61.8730   17.2130   55.9970 O.2    88  PHE88      -0.2715
     56  CB        63.1180   14.4780   56.3950 C.3    88  PHE88       0.0574
     57  CG        62.2490   13.6650   57.3260 C.ar   88  PHE88      -0.0200
     58  CD1       61.6600   12.4790   56.8890 C.ar   88  PHE88      -0.0042
     59  CD2       62.0150   14.0860   58.6330 C.ar   88  PHE88      -0.0042
     60  CE1       60.8480   11.7170   57.7450 C.ar   88  PHE88      -0.0003
     61  CE2       61.2050   13.3330   59.4960 C.ar   88  PHE88      -0.0003
     62  CZ        60.6220   12.1460   59.0460 C.ar   88  PHE88      -0.0000
     63  N         60.1240   15.8930   55.4790 N.am   89  MET89      -0.1963
     64  CA        59.1410   16.9290   55.7670 C.3    89  MET89       0.1736
     65  C         58.3160   16.8370   57.0470 C.2    89  MET89       0.2616
     66  O         57.3510   17.5840   57.2130 O.2    89  MET89      -0.2715
     67  CB        58.1990   17.0530   54.5730 C.3    89  MET89       0.0427
     68  CG        58.8730   17.5750   53.3250 C.3    89  MET89       0.0599
     69  SD        59.4670   19.2620   53.5660 S.3    89  MET89      -0.1393
     70  CE        61.2220   18.9770   53.6210 C.3    89  MET89       0.0692
     71  N         58.6790   15.9410   57.9570 N.am   90  ARG90      -0.1963
     72  CA        57.9260   15.8390   59.1940 C.3    90  ARG90       0.1729
     73  C         58.7020   16.4630   60.3440 C.2    90  ARG90       0.2616
     74  O         59.8710   16.1450   60.5480 O.2    90  ARG90      -0.2715
     75  CB        57.6120   14.3690   59.5190 C.3    90  ARG90       0.0348
     76  CG        56.8020   13.6460   58.4410 C.3    90  ARG90       0.0492
     77  CD        55.4640   14.3400   58.1700 C.3    90  ARG90       0.2205
     78  NE        54.6530   14.4570   59.3770 N.pl3  90  ARG90      -0.0865
     79  CZ        53.4680   15.0650   59.4370 C.cat  90  ARG90       0.5346
     80  NH1       52.9360   15.6190   58.3530 N.pl3  90  ARG90       0.1354
     81  NH2       52.8130   15.1260   60.5890 N.pl3  90  ARG90       0.1354
     82  N         58.0630   17.3700   61.0800 N.am   91  ILE91      -0.1963
     83  CA        58.7140   17.9780   62.2340 C.3    91  ILE91       0.1727
     84  C         58.8450   16.8470   63.2490 C.2    91  ILE91       0.2616
     85  O         57.8790   16.1140   63.4910 O.2    91  ILE91      -0.2715
     86  CB        57.8520   19.0890   62.8660 C.3    91  ILE91       0.0290
     87  CG1       57.5720   20.1910   61.8460 C.3    91  ILE91       0.0022
     88  CG2       58.5600   19.6510   64.0880 C.3    91  ILE91       0.0023
     89  CD1       58.8100   20.9030   61.3880 C.3    91  ILE91       0.0001
     90  N         60.0260   16.6950   63.8370 N.am   92  LEU92      -0.1977
     91  CA        60.2400   15.6320   64.8050 C.3    92  LEU92       0.1596
     92  C         59.9320   16.0770   66.2320 C.2    92  LEU92       0.2287
     93  O         60.0150   17.2660   66.5530 O.2    92  LEU92      -0.2864
     94  CB        61.6760   15.1220   64.6920 C.3    92  LEU92       0.0297
     95  CG        61.9600   14.3950   63.3670 C.3    92  LEU92       0.0022
     96  CD1       63.4480   14.3150   63.1090 C.3    92  LEU92       0.0001
     97  CD2       61.3370   13.0140   63.4120 C.3    92  LEU92       0.0001
     98  N         64.3570   14.2240   69.0480 N.3    97  VAL97      -0.1245
     99  CA        65.3800   15.2480   68.8180 C.3    97  VAL97       0.1561
    100  C         66.4590   15.2490   69.9040 C.2    97  VAL97       0.2260
    101  O         67.6570   15.2880   69.6040 O.2    97  VAL97      -0.2867
    102  CB        64.7400   16.6670   68.7260 C.3    97  VAL97       0.0252
    103  CG1       65.8210   17.7400   68.7780 C.3    97  VAL97       0.0019
    104  CG2       63.9340   16.7900   67.4370 C.3    97  VAL97       0.0019
    105  N         70.4260   18.5450   59.0800 N.3   106  ASN106     -0.1225
    106  CA        69.3860   18.8920   58.1150 C.3   106  ASN106      0.1785
    107  C         69.9430   19.9050   57.1300 C.2   106  ASN106      0.2597
    108  O         70.8030   20.7080   57.4910 O.2   106  ASN106     -0.2718
    109  CB        68.1750   19.5050   58.8180 C.3   106  ASN106      0.1169
    110  CG        67.1140   19.9970   57.8350 C.2   106  ASN106      0.2627
    111  OD1       66.5310   19.2110   57.0950 O.2   106  ASN106     -0.2716
    112  ND2       66.8660   21.3060   57.8230 N.am  106  ASN106     -0.0877
    113  N         69.4510   19.8670   55.8920 N.am  107  ILE107     -0.1966
    114  CA        69.8860   20.8190   54.8730 C.3   107  ILE107      0.1727
    115  C         68.6730   21.7420   54.6670 C.2   107  ILE107      0.2616
    116  O         67.5420   21.2710   54.5500 O.2   107  ILE107     -0.2715
    117  CB        70.2960   20.0840   53.5520 C.3   107  ILE107      0.0290
    118  CG1       70.7490   21.0980   52.4950 C.3   107  ILE107      0.0022
    119  CG2       69.1120   19.2730   52.9960 C.3   107  ILE107      0.0023
    120  CD1       71.9500   21.9550   52.9120 C.3   107  ILE107      0.0001
    121  N         68.8980   23.0540   54.6750 N.am  108  HIS108     -0.1960
    122  CA        67.8030   24.0130   54.5140 C.3   108  HIS108      0.1772
    123  C         68.1660   24.9540   53.3760 C.2   108  HIS108      0.2462
    124  O         69.2730   25.4880   53.3420 O.2   108  HIS108     -0.2730
    125  CB        67.5940   24.7960   55.8200 C.3   108  HIS108      0.0785
    126  CG        66.4700   25.7760   55.7520 C.ar  108  HIS108      0.0821
    127  ND1       65.1460   25.3950   55.8160 N.ar  108  HIS108     -0.2267
    128  CD2       66.4680   27.1130   55.5410 C.ar  108  HIS108      0.1154
    129  CE1       64.3780   26.4540   55.6450 C.ar  108  HIS108      0.1986
    130  NE2       65.1550   27.5100   55.4750 N.ar  108  HIS108     -0.2212
    131  N         67.2240   25.2010   52.4450 N.am  109  PRO109     -0.2727
    132  CA        67.5280   26.0780   51.3150 C.3   109  PRO109      0.1402
    133  C         67.5120   27.5950   51.4660 C.2   109  PRO109      0.2269
    134  O         66.9280   28.2950   50.6400 O.2   109  PRO109     -0.2865
    135  CB        66.5750   25.5750   50.2300 C.3   109  PRO109      0.0296
    136  CG        65.3280   25.2240   51.0330 C.3   109  PRO109      0.0237
    137  CD        65.8810   24.5920   52.3170 C.3   109  PRO109      0.0939
    138  N         61.2870   27.7620   57.5280 N.3   117  GLY117     -0.1210
    139  CA        60.0550   27.2410   56.9540 C.3   117  GLY117      0.1956
    140  C         60.3350   26.5100   55.6530 C.2   117  GLY117      0.2612
    141  O         61.4000   26.6970   55.0550 O.2   117  GLY117     -0.2717
    142  N         59.3710   25.7090   55.2000 N.am  118  SER118     -0.1952
    143  CA        59.5190   24.8940   53.9840 C.3   118  SER118      0.1924
    144  C         59.3100   25.5700   52.6230 C.2   118  SER118      0.2314
    145  O         59.3190   24.8950   51.5840 O.2   118  SER118     -0.2863
    146  CB        58.5870   23.6770   54.0730 C.3   118  SER118      0.2116
    147  OG        57.2330   24.0950   54.1810 O.3   118  SER118     -0.2180
    148  N         72.5990   22.3000   59.2740 N.3   137  HIS137     -0.1241
    149  CA        72.6000   22.5780   60.7050 C.3   137  HIS137      0.1621
    150  C         72.1910   21.3740   61.5200 C.2   137  HIS137      0.2264
    151  O         71.5430   20.4580   61.0100 O.2   137  HIS137     -0.2867
    152  CB        71.6350   23.7400   61.0210 C.3   137  HIS137      0.0745
    153  CG        70.2030   23.4390   60.6910 C.ar  137  HIS137      0.0817
    154  ND1       69.3130   22.9380   61.6190 N.ar  137  HIS137     -0.2268
    155  CD2       69.5240   23.5030   59.5190 C.ar  137  HIS137      0.1154
    156  CE1       68.1520   22.7040   61.0350 C.ar  137  HIS137      0.1986
    157  NE2       68.2520   23.0360   59.7600 N.ar  137  HIS137     -0.2212
    158  N         69.9620   19.4230   64.0310 N.3   139  VAL139     -0.1231
    159  CA        68.5320   19.5340   64.2470 C.3   139  VAL139      0.1692
    160  C         68.2440   19.7440   65.7410 C.2   139  VAL139      0.2592
    161  O         68.7340   18.9980   66.5890 O.2   139  VAL139     -0.2718
    162  CB        67.7990   18.2760   63.7430 C.3   139  VAL139      0.0266
    163  CG1       66.3290   18.3550   64.1030 C.3   139  VAL139      0.0020
    164  CG2       67.9700   18.1490   62.2190 C.3   139  VAL139      0.0020
    165  N         67.4630   20.7770   66.0440 N.am  140  ALA140     -0.1966
    166  CA        67.0770   21.1010   67.4160 C.3   140  ALA140      0.1728
    167  C         65.5610   21.1140   67.4520 C.2   140  ALA140      0.2616
    168  O         64.9080   21.1540   66.4060 O.2   140  ALA140     -0.2715
    169  CB        67.6280   22.4680   67.8280 C.3   140  ALA140      0.0334
    170  N         64.9980   21.0840   68.6510 N.am  141  GLU141     -0.1963
    171  CA        63.5500   21.0600   68.7860 C.3   141  GLU141      0.1733
    172  C         62.8930   22.1560   67.9640 C.2   141  GLU141      0.2616
    173  O         61.9070   21.9120   67.2700 O.2   141  GLU141     -0.2715
    174  CB        63.1460   21.1860   70.2560 C.3   141  GLU141      0.0429
    175  CG        61.6810   20.8720   70.4890 C.3   141  GLU141      0.1163
    176  CD        61.3380   20.7640   71.9660 C.2   141  GLU141      0.3649
    177  OE1       62.0100   19.9800   72.6780 O.co2 141  GLU141     -0.2457
    178  OE2       60.4010   21.4610   72.4100 O.co2 141  GLU141     -0.2457
    179  N         63.4370   23.3650   68.0500 N.am  142  ASP142     -0.1957
    180  CA        62.9090   24.4860   67.2890 C.3   142  ASP142      0.1840
    181  C         63.3170   24.3430   65.8270 C.2   142  ASP142      0.2622
    182  O         64.5000   24.2640   65.4980 O.2   142  ASP142     -0.2715
    183  CB        63.4230   25.8070   67.8620 C.3   142  ASP142      0.1450
    184  CG        62.8160   26.1190   69.2140 C.2   142  ASP142      0.3671
    185  OD1       62.9700   25.2880   70.1350 O.co2 142  ASP142     -0.2456
    186  OD2       62.1770   27.1850   69.3530 O.co2 142  ASP142     -0.2456
    187  N         62.3050   24.3100   64.9710 N.am  143  VAL143     -0.1963
    188  CA        62.4480   24.1550   63.5390 C.3   143  VAL143      0.1727
    189  C         63.4230   25.1350   62.8890 C.2   143  VAL143      0.2616
    190  O         63.3530   26.3510   63.1080 O.2   143  VAL143     -0.2715
    191  CB        61.0610   24.2710   62.8820 C.3   143  VAL143      0.0290
    192  CG1       61.1560   24.0820   61.3830 C.3   143  VAL143      0.0023
    193  CG2       60.1220   23.2250   63.5030 C.3   143  VAL143      0.0023
    194  N         64.3370   24.5840   62.0900 N.am  144  ASP144     -0.1971
    195  CA        65.3420   25.3740   61.3750 C.3   144  ASP144      0.1709
    196  C         66.0580   26.3710   62.2740 C.2   144  ASP144      0.2293
    197  O         66.3590   27.4770   61.8450 O.2   144  ASP144     -0.2864
    198  CB        64.6900   26.1400   60.2080 C.3   144  ASP144      0.1436
    199  CG        64.1990   25.2250   59.1050 C.2   144  ASP144      0.3671
    200  OD1       64.8260   24.1620   58.8870 O.co2 144  ASP144     -0.2456
    201  OD2       63.2030   25.5740   58.4320 O.co2 144  ASP144     -0.2456
@<TRIPOS>BOND
     1     9     8    1
     2     8     7    1
     3   135   136    1
     4   135   132    1
     5   134   133    2
     6     4     3    2
     7   136   137    1
     8     3     2    1
     9   132   133    1
    10   132   131    1
    11     5     2    1
    12     5     6    1
    13     7     6    1
    14   145   144    2
    15     2     1    1
    16    49    48    1
    17    49    50    1
    18   137   131    1
    19   131   123   am
    20   118   120    1
    21   118   117    1
    22    51    50    2
    23   144   143    1
    24    50    52   am
    25   119   117    1
    26    68    69    1
    27    68    67    1
    28   124   123    2
    29   123   122    1
    30   117   114    1
    31    69    70    1
    32   143   146    1
    33   143   142    1
    34   146   147    1
    35    52    53    1
    36   122   121    1
    37   122   125    1
    38   116   115    2
    39    67    64    1
    40   115   121   am
    41   115   114    1
    42   114   113    1
    43    27    28    1
    44    27    26    1
    45   141   140    2
    46    53    54    1
    47    53    56    1
    48   142   140   am
    49    26    25    1
    50    43    42    2
    51   130   128   ar
    52   130   129   ar
    53    63    54   am
    54    63    64    1
    55    42    41    1
    56   128   126   ar
    57    54    55    2
    58   129   127   ar
    59   140   139    1
    60   126   127   ar
    61   126   125    1
    62    64    65    1
    63   113   107   am
    64    18    16   ar
    65    18    19   ar
    66    56    57    1
    67    25    24    1
    68    41    40    1
    69    41    44    1
    70    58    57   ar
    71    58    60   ar
    72   139   138    1
    73    16    15   ar
    74    65    66    2
    75    65    71   am
    76   111   110    2
    77   107   108    2
    78   107   106    1
    79    19    17   ar
    80    24    21    1
    81    57    59   ar
    82    60    62   ar
    83    44    45    1
    84   112   110   am
    85   110   109    1
    86    71    72    1
    87   106   109    1
    88   106   105    1
    89    77    76    1
    90    77    78    1
    91    10    11    1
    92    80    79    1
    93    15    17   ar
    94    15    14    1
    95   201   199   ar
    96    76    75    1
    97    20    21    1
    98    20    12   am
    99    59    61   ar
   100    21    22    1
   101   200   199   ar
   102    62    61   ar
   103    23    22    2
   104   199   198    1
   105    72    75    1
   106    72    73    1
   107    45    47    1
   108    45    46    1
   109   148   149    1
   110    78    79    2
   111    14    11    1
   112    79    81    1
   113    11    12    1
   114   155   157   ar
   115   155   153   ar
   116    12    13    2
   117   157   156   ar
   118   198   195    1
   119    73    74    2
   120    73    82   am
   121   153   152    1
   122   153   154   ar
   123   149   152    1
   124   149   150    1
   125   151   150    2
   126   156   154   ar
   127    82    83    1
   128   195   194    1
   129   195   196    1
   130   192   191    1
   131    89    87    1
   132   197   196    2
   133    87    86    1
   134   194   189   am
   135   164   162    1
   136    83    86    1
   137    83    84    1
   138    39    37    1
   139    86    88    1
   140   191   193    1
   141   191   188    1
   142   189   190    2
   143   189   188    1
   144    96    95    1
   145    84    85    2
   146    84    90   am
   147    95    97    1
   148    95    94    1
   149   188   187    1
   150    37    38    1
   151    37    36    2
   152   162   163    1
   153   162   159    1
   154    90    91    1
   155   158   159    1
   156   159   160    1
   157    36    35    1
   158    94    91    1
   159    91    92    1
   160   187   181   am
   161    34    35    1
   162    34    33    1
   163   182   181    2
   164   160   165   am
   165   160   161    2
   166   181   180    1
   167   165   166    1
   168    92    93    2
   169    30    33    1
   170    30    29    1
   171    30    31    1
   172   168   167    2
   173    32    31    2
   174   173   172    2
   175   180   183    1
   176   180   179    1
   177   166   167    1
   178   166   169    1
   179   104   102    1
   180   167   170   am
   181   183   184    1
   182   172   179   am
   183   172   171    1
   184   170   171    1
   185   102   103    1
   186   102    99    1
   187   171   174    1
   188    99    98    1
   189    99   100    1
   190   184   186   ar
   191   184   185   ar
   192   101   100    2
   193   174   175    1
   194   175   176    1
   195   176   178   ar
   196   176   177   ar
