@<TRIPOS>MOLECULE
tmp/1rc2A03.pdb
 82 78 0 0 0
SMALL
GASTEIGER

@<TRIPOS>ATOM
      1  N        -34.6940   22.1750    6.7850 N.3    93  ILE93      -0.1231
      2  CA       -34.7000   21.1360    5.7630 C.3    93  ILE93       0.1692
      3  C        -36.0590   20.4410    5.6400 C.2    93  ILE93       0.2591
      4  O        -36.5110   20.1500    4.5280 O.2    93  ILE93      -0.2718
      5  CB       -33.6100   20.0760    6.0650 C.3    93  ILE93       0.0266
      6  CG1      -32.2340   20.6540    5.7140 C.3    93  ILE93       0.0019
      7  CG2      -33.9060   18.7710    5.3200 C.3    93  ILE93       0.0020
      8  CD1      -31.0710   19.7530    6.0850 C.3    93  ILE93       0.0001
      9  N        -36.7080   20.1670    6.7700 N.am   94  VAL94      -0.1980
     10  CA       -38.0130   19.5160    6.7220 C.3    94  VAL94       0.1595
     11  C        -38.9320   20.4310    5.9050 C.2    94  VAL94       0.2287
     12  O        -39.5180   20.0040    4.9060 O.2    94  VAL94      -0.2864
     13  CB       -38.6050   19.2780    8.1630 C.3    94  VAL94       0.0276
     14  CG1      -40.0080   18.6790    8.0700 C.3    94  VAL94       0.0022
     15  CG2      -37.7140   18.3140    8.9460 C.3    94  VAL94       0.0022
     16  N        -38.4430   20.5240    2.3650 N.3    97  ALA97      -0.1245
     17  CA       -38.9370   19.3030    1.7320 C.3    97  ALA97       0.1562
     18  C        -40.4260   19.3940    1.4130 C.2    97  ALA97       0.2260
     19  O        -40.8560   19.0630    0.3040 O.2    97  ALA97      -0.2867
     20  CB       -38.6680   18.0920    2.6340 C.3    97  ALA97       0.0290
     21  N        -40.9460   21.8780   -1.3770 N.3   100  TYR100     -0.1241
     22  CA       -40.6190   21.2800   -2.6570 C.3   100  TYR100      0.1605
     23  C        -41.7900   20.4030   -3.1270 C.2   100  TYR100      0.2264
     24  O        -42.1180   20.3610   -4.3190 O.2   100  TYR100     -0.2867
     25  CB       -39.3350   20.4600   -2.4980 C.3   100  TYR100      0.0534
     26  CG       -38.8780   19.7690   -3.7490 C.ar  100  TYR100     -0.0201
     27  CD1      -39.3820   18.5200   -4.0960 C.ar  100  TYR100     -0.0009
     28  CD2      -37.9560   20.3720   -4.6020 C.ar  100  TYR100     -0.0009
     29  CE1      -38.9830   17.8830   -5.2620 C.ar  100  TYR100      0.0417
     30  CE2      -37.5490   19.7430   -5.7760 C.ar  100  TYR100      0.0417
     31  CZ       -38.0690   18.4970   -6.0970 C.ar  100  TYR100      0.1957
     32  OH       -37.6810   17.8650   -7.2540 O.3   100  TYR100     -0.2866
     33  N        -36.9450   23.2370   -9.4540 N.3   111  ALA111     -0.1231
     34  CA       -36.0970   23.7670   -8.3900 C.3   111  ALA111      0.1694
     35  C        -34.6580   24.0000   -8.8280 C.2   111  ALA111      0.2591
     36  O        -33.9610   24.8480   -8.2700 O.2   111  ALA111     -0.2718
     37  CB       -36.1240   22.8430   -7.1860 C.3   111  ALA111      0.0304
     38  N        -34.1930   23.2660   -9.8260 N.am  112  ALA112     -0.1980
     39  CA       -32.8190   23.4800  -10.2560 C.3   112  ALA112      0.1597
     40  C        -32.7160   24.7550  -11.0640 C.2   112  ALA112      0.2287
     41  O        -31.9280   25.6410  -10.7470 O.2   112  ALA112     -0.2864
     42  CB       -32.3260   22.3010  -11.0810 C.3   112  ALA112      0.0319
     43  N        -29.9820   22.4430   -0.7200 N.3   195  ILE195     -0.1231
     44  CA       -30.0310   20.9960   -0.8670 C.3   195  ILE195      0.1692
     45  C        -30.9630   20.5640   -1.9900 C.2   195  ILE195      0.2592
     46  O        -30.6460   19.6480   -2.7500 O.2   195  ILE195     -0.2718
     47  CB       -30.5000   20.3230    0.4340 C.3   195  ILE195      0.0266
     48  CG1      -29.3640   20.3170    1.4530 C.3   195  ILE195      0.0019
     49  CG2      -30.9790   18.9160    0.1530 C.3   195  ILE195      0.0020
     50  CD1      -29.8110   19.8410    2.8100 C.3   195  ILE195      0.0001
     51  N        -32.1160   21.2160   -2.0940 N.am  196  PHE196     -0.1962
     52  CA       -33.0780   20.8700   -3.1300 C.3   196  PHE196      0.1771
     53  C        -32.7570   21.4900   -4.4860 C.2   196  PHE196      0.2619
     54  O        -33.2500   21.0270   -5.5190 O.2   196  PHE196     -0.2715
     55  CB       -34.4870   21.2370   -2.6620 C.3   196  PHE196      0.0574
     56  CG       -35.0560   20.2580   -1.6730 C.ar  196  PHE196     -0.0200
     57  CD1      -35.6690   19.0830   -2.1120 C.ar  196  PHE196     -0.0042
     58  CD2      -34.9300   20.4800   -0.3020 C.ar  196  PHE196     -0.0042
     59  CE1      -36.1440   18.1410   -1.1990 C.ar  196  PHE196     -0.0003
     60  CE2      -35.4020   19.5430    0.6200 C.ar  196  PHE196     -0.0003
     61  CZ       -36.0100   18.3710    0.1700 C.ar  196  PHE196     -0.0000
     62  N        -31.9370   22.5340   -4.4910 N.am  197  GLN197     -0.1963
     63  CA       -31.5390   23.1480   -5.7510 C.3   197  GLN197      0.1733
     64  C        -30.4450   22.2170   -6.2870 C.2   197  GLN197      0.2616
     65  O        -30.2430   22.1090   -7.4940 O.2   197  GLN197     -0.2715
     66  CB       -30.9970   24.5700   -5.5240 C.3   197  GLN197      0.0408
     67  CG       -30.8230   25.3760   -6.7970 C.3   197  GLN197      0.0908
     68  CD       -29.5720   24.9950   -7.5690 C.2   197  GLN197      0.2608
     69  OE1      -29.5900   24.8830   -8.8000 O.2   197  GLN197     -0.2717
     70  NE2      -28.4740   24.8120   -6.8520 N.am  197  GLN197     -0.0878
     71  N        -29.7580   21.5490   -5.3540 N.am  198  GLY198     -0.1955
     72  CA       -28.7130   20.5770   -5.6610 C.3   198  GLY198      0.1869
     73  C        -27.6140   20.8710   -6.6660 C.2   198  GLY198      0.2309
     74  O        -26.8580   19.9650   -7.0290 O.2   198  GLY198     -0.2863
     75  N        -25.4410   24.5450   -3.7740 N.3   202  LEU202     -0.1245
     76  CA       -24.6700   23.7080   -2.8700 C.3   202  LEU202      0.1561
     77  C        -23.1570   23.9840   -2.9720 C.2   202  LEU202      0.2260
     78  O        -22.3870   23.5850   -2.1030 O.2   202  LEU202     -0.2867
     79  CB       -25.0110   22.2410   -3.1360 C.3   202  LEU202      0.0270
     80  CG       -25.5540   21.4320   -1.9540 C.3   202  LEU202      0.0019
     81  CD1      -26.3540   22.2800   -0.9910 C.3   202  LEU202      0.0001
     82  CD2      -26.4190   20.3000   -2.5000 C.3   202  LEU202      0.0001
@<TRIPOS>BOND
     1    42    39    1
     2    40    41    2
     3    40    39    1
     4    39    38    1
     5    38    35   am
     6    33    34    1
     7    35    34    1
     8    35    36    2
     9    69    68    2
    10    34    37    1
    11    68    70   am
    12    68    67    1
    13    65    64    2
    14    32    31    1
    15    74    73    2
    16    67    66    1
    17    73    72    1
    18    64    63    1
    19    64    71   am
    20    31    30   ar
    21    31    29   ar
    22    30    28   ar
    23    63    66    1
    24    63    62    1
    25    72    71    1
    26    54    53    2
    27    29    27   ar
    28    28    26   ar
    29    62    53   am
    30    53    52    1
    31    24    23    2
    32    27    26   ar
    33    75    76    1
    34    26    25    1
    35    79    76    1
    36    79    80    1
    37    52    55    1
    38    52    51    1
    39    23    22    1
    40    77    76    1
    41    77    78    2
    42    46    45    2
    43    55    56    1
    44    22    25    1
    45    22    21    1
    46    82    80    1
    47    57    56   ar
    48    57    59   ar
    49    51    45   am
    50    45    44    1
    51    80    81    1
    52    56    58   ar
    53    59    61   ar
    54    44    43    1
    55    44    47    1
    56    58    60   ar
    57    49    47    1
    58    61    60   ar
    59    19    18    2
    60    47    48    1
    61    18    17    1
    62    48    50    1
    63    17    16    1
    64    17    20    1
    65     4     3    2
    66    12    11    2
    67     7     5    1
    68     3     2    1
    69     3     9   am
    70     6     5    1
    71     6     8    1
    72     2     5    1
    73     2     1    1
    74    11    10    1
    75    10     9    1
    76    10    13    1
    77    14    13    1
    78    13    15    1
