@<TRIPOS>MOLECULE
tmp/1rc8B01.pdb
 79 75 0 0 0
SMALL
GASTEIGER

@<TRIPOS>ATOM
      1  N         70.6420   85.3230   77.4000 N.3    10  PRO10      -0.2102
      2  CA        71.3940   85.5960   76.1690 C.3    10  PRO10       0.1504
      3  C         72.7250   84.8740   76.1960 C.2    10  PRO10       0.2576
      4  O         73.4020   84.8610   77.2220 O.2    10  PRO10      -0.2718
      5  CB        71.5530   87.1120   76.1750 C.3    10  PRO10       0.0282
      6  CG        71.4110   87.4770   77.6000 C.3    10  PRO10       0.0208
      7  CD        70.3050   86.5790   78.0860 C.3    10  PRO10       0.0893
      8  N         73.0860   84.2620   75.0720 N.am   11  GLY11      -0.1943
      9  CA        74.3320   83.5240   74.9990 C.3    11  GLY11       0.2014
     10  C         74.1390   82.0570   75.3310 C.2    11  GLY11       0.2640
     11  O         75.0750   81.2710   75.2600 O.2    11  GLY11      -0.2714
     12  N         72.9170   81.6820   75.6860 N.am   12  SER12      -0.1935
     13  CA        72.6110   80.3080   76.0380 C.3    12  SER12       0.2055
     14  C         72.6570   79.3670   74.8490 C.2    12  SER12       0.2644
     15  O         72.9810   78.1950   74.9980 O.2    12  SER12      -0.2714
     16  CB        71.2340   80.2320   76.6810 C.3    12  SER12       0.2130
     17  OG        70.2650   80.8160   75.8360 O.3    12  SER12      -0.2179
     18  N         72.3250   79.8600   73.6670 N.am   13  GLY13      -0.1939
     19  CA        72.3580   78.9950   72.4980 C.3    13  GLY13       0.2014
     20  C         71.0930   79.0260   71.6630 C.2    13  GLY13       0.2639
     21  O         71.0350   78.4230   70.6030 O.2    13  GLY13      -0.2714
     22  N         70.0860   79.7440   72.1440 N.am   14  LYS14      -0.1963
     23  CA        68.8060   79.8730   71.4700 C.3    14  LYS14       0.1728
     24  C         68.8800   80.0010   69.9520 C.2    14  LYS14       0.2617
     25  O         68.3460   79.1610   69.2260 O.2    14  LYS14      -0.2715
     26  CB        68.0480   81.0830   72.0260 C.3    14  LYS14       0.0311
     27  CG        67.8730   81.0560   73.5270 C.3    14  LYS14       0.0038
     28  CD        67.0500   82.2290   74.0670 C.3    14  LYS14       0.0206
     29  CE        67.7770   83.5650   73.9510 C.3    14  LYS14       0.1093
     30  NZ        67.6590   84.1660   72.5900 N.3    14  LYS14      -0.1314
     31  N         69.5520   81.0500   69.4830 N.am   15  SER15      -0.1936
     32  CA        69.6530   81.3490   68.0590 C.3    15  SER15       0.2055
     33  C         70.4720   80.3920   67.2200 C.2    15  SER15       0.2643
     34  O         70.0860   80.0430   66.0960 O.2    15  SER15      -0.2714
     35  CB        70.1850   82.7630   67.8780 C.3    15  SER15       0.2130
     36  OG        69.3130   83.6900   68.4970 O.3    15  SER15      -0.2179
     37  N         71.6120   79.9800   67.7470 N.am   16  THR16      -0.1950
     38  CA        72.4490   79.0650   67.0110 C.3    16  THR16       0.1897
     39  C         71.6050   77.8400   66.7380 C.2    16  THR16       0.2313
     40  O         71.7240   77.2100   65.6830 O.2    16  THR16      -0.2863
     41  CB        73.6780   78.6800   67.8280 C.3    16  THR16       0.1794
     42  OG1       74.4430   79.8600   68.1010 O.3    16  THR16      -0.2208
     43  CG2       74.5350   77.6870   67.0730 C.3    16  THR16       0.0378
     44  N         61.6860   87.0250   66.3650 N.3    32  ASN32      -0.1240
     45  CA        62.5770   87.4520   67.4430 C.3    32  ASN32       0.1653
     46  C         62.5240   88.9510   67.7890 C.2    32  ASN32       0.2266
     47  O         62.5070   89.8050   66.9080 O.2    32  ASN32      -0.2867
     48  CB        64.0020   87.0170   67.0650 C.3    32  ASN32       0.1155
     49  CG        65.0350   87.4750   68.0520 C.2    32  ASN32       0.2627
     50  OD1       65.5280   88.5930   67.9660 O.2    32  ASN32      -0.2716
     51  ND2       65.3620   86.6160   69.0100 N.am   32  ASN32      -0.0877
     52  N         64.8430   90.9590   69.4770 N.3    34  ASP34      -0.1239
     53  CA        66.0860   91.6500   69.1570 C.3    34  ASP34       0.1674
     54  C         66.1070   92.1520   67.7180 C.2    34  ASP34       0.2266
     55  O         66.4840   93.2860   67.4720 O.2    34  ASP34      -0.2867
     56  CB        67.2930   90.7360   69.3970 C.3    34  ASP34       0.1410
     57  CG        67.7380   90.7090   70.8580 C.2    34  ASP34       0.3668
     58  OD1       68.5610   89.8280   71.2110 O.co2  34  ASP34      -0.2456
     59  OD2       67.2780   91.5680   71.6460 O.co2  34  ASP34      -0.2456
     60  N         80.3990   89.0070   73.6580 N.3   123  ARG123     -0.1245
     61  CA        79.2770   89.2110   72.7430 C.3   123  ARG123      0.1563
     62  C         79.4800   90.5300   72.0080 C.2   123  ARG123      0.2260
     63  O         78.9600   90.7350   70.9090 O.2   123  ARG123     -0.2867
     64  CB        77.9560   89.2730   73.5140 C.3   123  ARG123      0.0307
     65  CG        77.5360   87.9750   74.1410 C.3   123  ARG123      0.0489
     66  CD        77.2420   86.9450   73.0750 C.3   123  ARG123      0.2205
     67  NE        76.0840   87.2850   72.2510 N.pl3 123  ARG123     -0.0865
     68  CZ        74.8520   87.4500   72.7210 C.cat 123  ARG123      0.5346
     69  NH1       73.8580   87.7490   71.8910 N.pl3 123  ARG123      0.1354
     70  NH2       74.6150   87.3360   74.0240 N.pl3 123  ARG123      0.1354
     71  N         76.1190   93.5110   70.9960 N.3   126  LYS126     -0.1245
     72  CA        74.9020   92.8360   71.4250 C.3   126  LYS126      0.1561
     73  C         75.0750   92.1150   72.7590 C.2   126  LYS126      0.2260
     74  O         74.2790   91.2500   73.1190 O.2   126  LYS126     -0.2867
     75  CB        74.4020   91.8730   70.3350 C.3   126  LYS126      0.0271
     76  CG        75.4870   91.1720   69.5290 C.3   126  LYS126      0.0035
     77  CD        74.8780   90.2610   68.4570 C.3   126  LYS126      0.0206
     78  CE        75.9420   89.6850   67.5170 C.3   126  LYS126      0.1093
     79  NZ        77.0050   88.9090   68.2240 N.3   126  LYS126     -0.1314
@<TRIPOS>BOND
     1    40    39    2
     2    34    33    2
     3    44    45    1
     4    39    38    1
     5    47    46    2
     6    38    37    1
     7    38    41    1
     8    48    45    1
     9    48    49    1
    10    43    41    1
    11    33    37   am
    12    33    32    1
    13    45    46    1
    14    55    54    2
    15    78    79    1
    16    78    77    1
    17    54    53    1
    18    41    42    1
    19    35    32    1
    20    35    36    1
    21    50    49    2
    22    49    51   am
    23    32    31    1
    24    77    76    1
    25    53    56    1
    26    53    52    1
    27    25    24    2
    28    56    57    1
    29    31    24   am
    30    76    75    1
    31    24    23    1
    32    75    72    1
    33    21    20    2
    34    57    58   ar
    35    57    59   ar
    36    63    62    2
    37    71    72    1
    38    72    73    1
    39    23    26    1
    40    23    22    1
    41    20    22   am
    42    20    19    1
    43    69    68    1
    44    62    61    1
    45    26    27    1
    46    67    68    2
    47    67    66    1
    48    19    18    1
    49    30    29    1
    50    68    70    1
    51    61    64    1
    52    61    60    1
    53    73    74    2
    54    66    65    1
    55    64    65    1
    56    27    28    1
    57    18    14   am
    58    29    28    1
    59    14    15    2
    60    14    13    1
    61     9     8    1
    62     9    10    1
    63     8     3   am
    64    11    10    2
    65    10    12   am
    66    12    13    1
    67    17    16    1
    68    13    16    1
    69     2     5    1
    70     2     3    1
    71     2     1    1
    72     5     6    1
    73     3     4    2
    74     1     7    1
    75     6     7    1
