@<TRIPOS>MOLECULE
tmp/1rc8B00.pdb
 187 176 0 0 0
SMALL
GASTEIGER

@<TRIPOS>ATOM
      1  N         70.6420   85.3230   77.4000 N.3    10  PRO10      -0.2116
      2  CA        71.3940   85.5960   76.1690 C.3    10  PRO10       0.1372
      3  C         72.7250   84.8740   76.1960 C.2    10  PRO10       0.2244
      4  O         73.4020   84.8610   77.2220 O.2    10  PRO10      -0.2868
      5  CB        71.5530   87.1120   76.1750 C.3    10  PRO10       0.0268
      6  CG        71.4110   87.4770   77.6000 C.3    10  PRO10       0.0207
      7  CD        70.3050   86.5790   78.0860 C.3    10  PRO10       0.0892
      8  N         70.0860   79.7440   72.1440 N.3    14  LYS14      -0.1245
      9  CA        68.8060   79.8730   71.4700 C.3    14  LYS14       0.1561
     10  C         68.8800   80.0010   69.9520 C.2    14  LYS14       0.2260
     11  O         68.3460   79.1610   69.2260 O.2    14  LYS14      -0.2867
     12  CB        68.0480   81.0830   72.0260 C.3    14  LYS14       0.0271
     13  CG        67.8730   81.0560   73.5270 C.3    14  LYS14       0.0035
     14  CD        67.0500   82.2290   74.0670 C.3    14  LYS14       0.0206
     15  CE        67.7770   83.5650   73.9510 C.3    14  LYS14       0.1093
     16  NZ        67.6590   84.1660   72.5900 N.3    14  LYS14      -0.1314
     17  N         62.5030   89.2560   69.0820 N.3    33  ARG33      -0.1231
     18  CA        62.4300   90.6360   69.5500 C.3    33  ARG33       0.1694
     19  C         63.6530   91.4650   69.1570 C.2    33  ARG33       0.2592
     20  O         63.5190   92.5470   68.5860 O.2    33  ARG33      -0.2718
     21  CB        62.2860   90.6640   71.0720 C.3    33  ARG33       0.0321
     22  CG        61.2950   91.6940   71.5930 C.3    33  ARG33       0.0489
     23  CD        59.8770   91.1300   71.6220 C.3    33  ARG33       0.2205
     24  NE        59.6720   90.2210   72.7460 N.pl3  33  ARG33      -0.0865
     25  CZ        59.6180   90.6070   74.0170 C.cat  33  ARG33       0.5346
     26  NH1       59.4300   89.7160   74.9760 N.pl3  33  ARG33       0.1354
     27  NH2       59.7420   91.8870   74.3320 N.pl3  33  ARG33       0.1354
     28  N         64.8430   90.9590   69.4770 N.am   34  ASP34      -0.1974
     29  CA        66.0860   91.6500   69.1570 C.3    34  ASP34       0.1709
     30  C         66.1070   92.1520   67.7180 C.2    34  ASP34       0.2293
     31  O         66.4840   93.2860   67.4720 O.2    34  ASP34      -0.2864
     32  CB        67.2930   90.7360   69.3970 C.3    34  ASP34       0.1436
     33  CG        67.7380   90.7090   70.8580 C.2    34  ASP34       0.3671
     34  OD1       68.5610   89.8280   71.2110 O.co2  34  ASP34      -0.2456
     35  OD2       67.2780   91.5680   71.6460 O.co2  34  ASP34      -0.2456
     36  N         63.6170   94.9530   67.3020 N.3    37  ARG37      -0.1245
     37  CA        64.1360   96.0800   68.0480 C.3    37  ARG37       0.1563
     38  C         65.1950   96.8420   67.2470 C.2    37  ARG37       0.2260
     39  O         65.2760   98.0700   67.3300 O.2    37  ARG37      -0.2867
     40  CB        64.7200   95.5790   69.3690 C.3    37  ARG37       0.0307
     41  CG        64.2160   96.3110   70.6050 C.3    37  ARG37       0.0489
     42  CD        63.4930   95.4030   71.6100 C.3    37  ARG37       0.2205
     43  NE        64.2360   94.1780   71.8910 N.pl3  37  ARG37      -0.0865
     44  CZ        63.9280   93.3000   72.8430 C.cat  37  ARG37       0.5346
     45  NH1       64.6740   92.2190   72.9930 N.pl3  37  ARG37       0.1354
     46  NH2       62.8950   93.5020   73.6540 N.pl3  37  ARG37       0.1354
     47  N         70.8170  100.2260   71.3060 N.3    48  TYR48      -0.1241
     48  CA        69.3840  100.4740   71.3960 C.3    48  TYR48       0.1605
     49  C         68.9970  101.0840   72.7430 C.2    48  TYR48       0.2264
     50  O         69.5320  100.7070   73.7840 O.2    48  TYR48      -0.2867
     51  CB        68.6290   99.1550   71.1520 C.3    48  TYR48       0.0534
     52  CG        67.1410   99.1930   71.4380 C.ar   48  TYR48      -0.0201
     53  CD1       66.6580   99.0420   72.7340 C.ar   48  TYR48      -0.0009
     54  CD2       66.2180   99.3660   70.4100 C.ar   48  TYR48      -0.0009
     55  CE1       65.3030   99.0560   72.9970 C.ar   48  TYR48       0.0417
     56  CE2       64.8590   99.3860   70.6650 C.ar   48  TYR48       0.0417
     57  CZ        64.4080   99.2270   71.9600 C.ar   48  TYR48       0.1957
     58  OH        63.0540   99.2100   72.2250 O.3    48  TYR48      -0.2866
     59  N         66.0630  101.7000   75.5410 N.3    50  TYR50      -0.1241
     60  CA        64.7850  101.1220   75.9590 C.3    50  TYR50       0.1605
     61  C         63.6120  102.0830   76.0490 C.2    50  TYR50       0.2264
     62  O         63.7280  103.1810   76.5880 O.2    50  TYR50      -0.2867
     63  CB        64.8990  100.4090   77.3070 C.3    50  TYR50       0.0534
     64  CG        63.6080   99.6970   77.6800 C.ar   50  TYR50      -0.0201
     65  CD1       62.8030  100.1460   78.7230 C.ar   50  TYR50      -0.0009
     66  CD2       63.1880   98.5780   76.9670 C.ar   50  TYR50      -0.0009
     67  CE1       61.6080   99.4920   79.0430 C.ar   50  TYR50       0.0417
     68  CE2       62.0130   97.9230   77.2770 C.ar   50  TYR50       0.0417
     69  CZ        61.2190   98.3750   78.3120 C.ar   50  TYR50       0.1957
     70  OH        60.0360   97.7010   78.5970 O.3    50  TYR50      -0.2866
     71  N         59.0970  101.8990   76.5450 N.3    52  LYS52      -0.1245
     72  CA        57.8760  101.1460   76.7590 C.3    52  LYS52       0.1561
     73  C         57.0740  101.1690   75.4570 C.2    52  LYS52       0.2260
     74  O         56.3920  100.2010   75.1140 O.2    52  LYS52      -0.2867
     75  CB        57.0680  101.7750   77.8990 C.3    52  LYS52       0.0271
     76  CG        57.9800  101.7390   79.1320 C.3    52  LYS52       0.0035
     77  CD        57.9730  100.3430   79.7320 C.3    52  LYS52       0.0206
     78  CE        57.9010  100.5730   81.2460 C.3    52  LYS52       0.1093
     79  NZ        58.3470   99.2440   81.7660 N.3    52  LYS52      -0.1314
     80  N         58.6540   98.8180   72.8140 N.3    55  GLU55      -0.1231
     81  CA        58.4030   97.4360   73.2130 C.3    55  GLU55       0.1699
     82  C         57.0330   96.9820   72.7410 C.2    55  GLU55       0.2592
     83  O         56.9000   95.9400   72.0980 O.2    55  GLU55      -0.2718
     84  CB        58.4890   97.2860   74.7280 C.3    55  GLU55       0.0402
     85  CG        59.8880   97.4200   75.2890 C.3    55  GLU55       0.1161
     86  CD        60.9130   96.5510   74.5710 C.2    55  GLU55       0.3649
     87  OE1       60.5410   95.4620   74.0840 O.co2  55  GLU55      -0.2457
     88  OE2       62.0930   96.9510   74.5030 O.co2  55  GLU55      -0.2457
     89  N         56.0150   97.7670   73.0750 N.am   56  GLY56      -0.1957
     90  CA        54.6700   97.4370   72.6500 C.3    56  GLY56       0.1869
     91  C         54.7190   97.1130   71.1720 C.2    56  GLY56       0.2309
     92  O         54.2690   96.0460   70.7370 O.2    56  GLY56      -0.2863
     93  N         56.3130   93.7810   70.4990 N.3    59  THR59      -0.1218
     94  CA        55.4490   92.6740   70.9030 C.3    59  THR59       0.1862
     95  C         54.3620   92.4880   69.8430 C.2    59  THR59       0.2287
     96  O         54.1050   91.3720   69.3750 O.2    59  THR59      -0.2866
     97  CB        54.7810   92.9540   72.2660 C.3    59  THR59       0.1770
     98  OG1       55.7820   93.0000   73.2940 O.3    59  THR59      -0.2211
     99  CG2       53.7660   91.8630   72.5890 C.3    59  THR59       0.0375
    100  N         63.4150   84.2140   71.7970 N.3    82  ASP82      -0.1225
    101  CA        63.6330   85.2570   72.7940 C.3    82  ASP82       0.1805
    102  C         64.0980   84.5710   74.0870 C.2    82  ASP82       0.2598
    103  O         64.2170   83.3410   74.1410 O.2    82  ASP82      -0.2718
    104  CB        62.3320   86.0170   73.0750 C.3    82  ASP82       0.1424
    105  CG        61.9330   86.9670   71.9490 C.2    82  ASP82       0.3668
    106  OD1       60.8400   87.5720   72.0620 O.co2  82  ASP82      -0.2456
    107  OD2       62.6930   87.1240   70.9680 O.co2  82  ASP82      -0.2456
    108  N         64.3590   85.3570   75.1290 N.am   83  THR83      -0.1939
    109  CA        64.7780   84.7890   76.4090 C.3    83  THR83       0.2028
    110  C         63.5890   84.0680   77.0720 C.2    83  THR83       0.2642
    111  O         63.7640   83.0880   77.7990 O.2    83  THR83      -0.2714
    112  CB        65.2790   85.8870   77.3570 C.3    83  THR83       0.1808
    113  OG1       64.2050   86.7840   77.6570 O.3    83  THR83      -0.2208
    114  CG2       66.4000   86.6720   76.7150 C.3    83  THR83       0.0379
    115  N         62.3850   84.5720   76.8030 N.am   84  ASN84      -0.1971
    116  CA        61.1430   84.0270   77.3480 C.3    84  ASN84       0.1688
    117  C         61.2520   83.7170   78.8320 C.2    84  ASN84       0.2292
    118  O         60.5630   82.8370   79.3280 O.2    84  ASN84      -0.2864
    119  CB        60.7390   82.7410   76.6130 C.3    84  ASN84       0.1181
    120  CG        60.3580   82.9780   75.1570 C.2    84  ASN84       0.2629
    121  OD1       59.7170   83.9770   74.8210 O.2    84  ASN84      -0.2716
    122  ND2       60.7320   82.0400   74.2860 N.am   84  ASN84      -0.0877
    123  N         60.4910   85.7550   81.4190 N.3    86  ASN86      -0.1240
    124  CA        59.4290   86.3230   82.2400 C.3    86  ASN86       0.1653
    125  C         58.2310   85.3750   82.1070 C.2    86  ASN86       0.2266
    126  O         57.8420   85.0140   80.9950 O.2    86  ASN86      -0.2867
    127  CB        59.0430   87.7140   81.7460 C.3    86  ASN86       0.1155
    128  CG        57.8190   88.2600   82.4580 C.2    86  ASN86       0.2627
    129  OD1       56.7090   87.7570   82.2850 O.2    86  ASN86      -0.2716
    130  ND2       58.0160   89.2860   83.2740 N.am   86  ASN86      -0.0877
    131  N         54.8670   86.4760   80.4860 N.3    89  ARG89      -0.1245
    132  CA        55.0490   86.4840   79.0500 C.3    89  ARG89       0.1563
    133  C         54.8460   85.0850   78.4850 C.2    89  ARG89       0.2260
    134  O         54.2300   84.9160   77.4320 O.2    89  ARG89      -0.2867
    135  CB        56.4550   86.9930   78.7330 C.3    89  ARG89       0.0307
    136  CG        56.7590   87.1490   77.2690 C.3    89  ARG89       0.0489
    137  CD        55.8140   88.1240   76.6260 C.3    89  ARG89       0.2205
    138  NE        56.3990   88.7000   75.4250 N.pl3  89  ARG89      -0.0865
    139  CZ        55.8400   89.6870   74.7390 C.cat  89  ARG89       0.5346
    140  NH1       54.6830   90.1850   75.1480 N.pl3  89  ARG89       0.1354
    141  NH2       56.4410   90.1900   73.6660 N.pl3  89  ARG89       0.1354
    142  N         80.3990   89.0070   73.6580 N.3   123  ARG123     -0.1245
    143  CA        79.2770   89.2110   72.7430 C.3   123  ARG123      0.1563
    144  C         79.4800   90.5300   72.0080 C.2   123  ARG123      0.2260
    145  O         78.9600   90.7350   70.9090 O.2   123  ARG123     -0.2867
    146  CB        77.9560   89.2730   73.5140 C.3   123  ARG123      0.0307
    147  CG        77.5360   87.9750   74.1410 C.3   123  ARG123      0.0489
    148  CD        77.2420   86.9450   73.0750 C.3   123  ARG123      0.2205
    149  NE        76.0840   87.2850   72.2510 N.pl3 123  ARG123     -0.0865
    150  CZ        74.8520   87.4500   72.7210 C.cat 123  ARG123      0.5346
    151  NH1       73.8580   87.7490   71.8910 N.pl3 123  ARG123      0.1354
    152  NH2       74.6150   87.3360   74.0240 N.pl3 123  ARG123      0.1354
    153  N         76.1190   93.5110   70.9960 N.3   126  LYS126     -0.1231
    154  CA        74.9020   92.8360   71.4250 C.3   126  LYS126      0.1693
    155  C         75.0750   92.1150   72.7590 C.2   126  LYS126      0.2592
    156  O         74.2790   91.2500   73.1190 O.2   126  LYS126     -0.2718
    157  CB        74.4020   91.8730   70.3350 C.3   126  LYS126      0.0285
    158  CG        75.4870   91.1720   69.5290 C.3   126  LYS126      0.0035
    159  CD        74.8780   90.2610   68.4570 C.3   126  LYS126      0.0206
    160  CE        75.9420   89.6850   67.5170 C.3   126  LYS126      0.1093
    161  NZ        77.0050   88.9090   68.2240 N.3   126  LYS126     -0.1314
    162  N         76.1210   92.4820   73.4930 N.am  127  ALA127     -0.1966
    163  CA        76.3620   91.9060   74.8040 C.3   127  ALA127      0.1728
    164  C         75.2850   92.5040   75.6970 C.2   127  ALA127      0.2616
    165  O         74.5940   93.4430   75.2900 O.2   127  ALA127     -0.2715
    166  CB        77.7270   92.3000   75.3060 C.3   127  ALA127      0.0334
    167  N         75.1400   91.9810   76.9110 N.am  128  VAL128     -0.1964
    168  CA        74.1190   92.4920   77.8170 C.3   128  VAL128      0.1712
    169  C         74.7640   92.8720   79.1550 C.2   128  VAL128      0.2458
    170  O         75.6880   92.1990   79.6050 O.2   128  VAL128     -0.2730
    171  CB        73.0160   91.4210   77.9940 C.3   128  VAL128      0.0289
    172  CG1       73.4180   90.4100   79.0360 C.3   128  VAL128      0.0023
    173  CG2       71.7100   92.0630   78.3140 C.3   128  VAL128      0.0023
    174  N         74.3100   93.9720   79.7910 N.am  129  PRO129     -0.2727
    175  CA        74.9210   94.3490   81.0730 C.3   129  PRO129      0.1402
    176  C         74.9260   93.2040   82.0730 C.2   129  PRO129      0.2269
    177  O         74.0310   92.3630   82.0780 O.2   129  PRO129     -0.2865
    178  CB        74.0890   95.5520   81.5380 C.3   129  PRO129      0.0296
    179  CG        72.8040   95.4420   80.7700 C.3   129  PRO129      0.0237
    180  CD        73.2440   94.9180   79.4240 C.3   129  PRO129      0.0939
    181  N         71.8100   92.5990   84.2540 N.3   132  VAL132     -0.1245
    182  CA        70.6280   92.0280   83.6310 C.3   132  VAL132      0.1561
    183  C         70.8320   90.5400   83.3710 C.2   132  VAL132      0.2260
    184  O         69.8710   89.7790   83.3610 O.2   132  VAL132     -0.2867
    185  CB        70.2550   92.7630   82.3130 C.3   132  VAL132      0.0252
    186  CG1       70.1220   94.2420   82.5680 C.3   132  VAL132      0.0019
    187  CG2       71.2860   92.5080   81.2690 C.3   132  VAL132      0.0019
@<TRIPOS>BOND
     1    38    39    2
     2    38    37    1
     3    36    37    1
     4    31    30    2
     5   160   161    1
     6   160   159    1
     7    30    29    1
     8    37    40    1
     9   159   158    1
    10    20    19    2
    11    17    18    1
    12    29    32    1
    13    29    28    1
    14    19    28   am
    15    19    18    1
    16    11    10    2
    17    40    41    1
    18    96    95    2
    19    32    33    1
    20   158   157    1
    21    18    21    1
    22    95    94    1
    23    10     9    1
    24   157   154    1
    25    54    56   ar
    26    54    52   ar
    27    93    94    1
    28    41    42    1
    29    56    57   ar
    30    92    91    2
    31    33    34   ar
    32    33    35   ar
    33    94    97    1
    34   145   144    2
    35   107   105   ar
    36   153   154    1
    37    21    22    1
    38    51    48    1
    39    51    52    1
    40    91    90    1
    41    47    48    1
    42    48    49    1
    43   154   155    1
    44    52    53   ar
    45     9    12    1
    46     9     8    1
    47    22    23    1
    48    42    43    1
    49    23    24    1
    50   100   101    1
    51   151   150    1
    52    43    44    2
    53   105   106   ar
    54   105   104    1
    55    57    58    1
    56    57    55   ar
    57   144   143    1
    58    12    13    1
    59    83    82    2
    60   149   150    2
    61   149   148    1
    62    97    99    1
    63    97    98    1
    64    16    15    1
    65    90    89    1
    66   150   152    1
    67    53    55   ar
    68    82    89   am
    69    82    81    1
    70   143   146    1
    71   143   142    1
    72    49    50    2
    73    24    25    2
    74   155   156    2
    75   155   162   am
    76   101   104    1
    77   101   102    1
    78    80    81    1
    79    44    45    1
    80    44    46    1
    81   148   147    1
    82    81    84    1
    83   162   163    1
    84   146   147    1
    85    13    14    1
    86   141   139    1
    87    15    14    1
    88    25    27    1
    89    25    26    1
    90    87    86   ar
    91   102   103    2
    92   102   108   am
    93   122   120   am
    94    88    86   ar
    95    86    85    1
    96    84    85    1
    97   139   140    1
    98   139   138    2
    99   163   166    1
   100   163   164    1
   101   121   120    2
   102    74    73    2
   103   108   109    1
   104   120   119    1
   105   165   164    2
   106   138   137    1
   107    73    72    1
   108    59    60    1
   109   164   167   am
   110    60    61    1
   111    60    63    1
   112    61    62    2
   113     2     5    1
   114     2     3    1
   115     2     1    1
   116     5     6    1
   117     3     4    2
   118   109   110    1
   119   109   112    1
   120    71    72    1
   121   119   116    1
   122   137   136    1
   123   114   112    1
   124    72    75    1
   125   115   110   am
   126   115   116    1
   127   167   168    1
   128    66    68   ar
   129    66    64   ar
   130   110   111    2
   131   136   135    1
   132    68    69   ar
   133    63    64    1
   134   116   117    1
   135   112   113    1
   136     1     7    1
   137   134   133    2
   138     6     7    1
   139    64    65   ar
   140   168   171    1
   141   168   169    1
   142    75    76    1
   143   171   173    1
   144   171   172    1
   145    69    70    1
   146    69    67   ar
   147   133   132    1
   148    65    67   ar
   149   135   132    1
   150   117   118    2
   151   132   131    1
   152    76    77    1
   153   169   170    2
   154   169   174   am
   155   180   174    1
   156   180   179    1
   157    77    78    1
   158   174   175    1
   159   179   178    1
   160   126   125    2
   161   175   178    1
   162   175   176    1
   163    78    79    1
   164   187   185    1
   165   123   124    1
   166   127   124    1
   167   127   128    1
   168   176   177    2
   169   125   124    1
   170   129   128    2
   171   185   186    1
   172   185   182    1
   173   128   130   am
   174   184   183    2
   175   183   182    1
   176   182   181    1
