@<TRIPOS>MOLECULE
tmp/1rcnB00.pdb
 200 192 0 0 0
SMALL
GASTEIGER

@<TRIPOS>ATOM
      1  N         48.1030   -3.1900   15.7650 N.3     4  ALA4       -0.1245
      2  CA        47.3350   -3.5120   16.9860 C.3     4  ALA4        0.1562
      3  C         47.0050   -2.2860   17.8370 C.2     4  ALA4        0.2260
      4  O         45.8780   -2.1960   18.3210 O.2     4  ALA4       -0.2867
      5  CB        48.0900   -4.4390   17.9100 C.3     4  ALA4        0.0290
      6  N         44.2350   -0.4240   15.9860 N.3     7  LYS7       -0.1245
      7  CA        43.0830   -1.2940   16.1120 C.3     7  LYS7        0.1561
      8  C         42.5110   -1.1560   17.5220 C.2     7  LYS7        0.2260
      9  O         41.2850   -1.1820   17.6370 O.2     7  LYS7       -0.2867
     10  CB        43.5200   -2.7180   15.8250 C.3     7  LYS7        0.0271
     11  CG        42.3320   -3.4500   15.3070 C.3     7  LYS7        0.0035
     12  CD        42.5760   -4.9410   15.1900 C.3     7  LYS7        0.0206
     13  CE        41.2910   -5.6780   14.8000 C.3     7  LYS7        0.1093
     14  NZ        41.6240   -7.0680   14.5380 N.3     7  LYS7       -0.1314
     15  N         38.5610    0.3150   18.0670 N.3    11  GLN11      -0.1231
     16  CA        37.5330   -0.5070   18.6600 C.3    11  GLN11       0.1698
     17  C         37.2520   -0.1300   20.1040 C.2    11  GLN11       0.2592
     18  O         36.1570   -0.4140   20.6180 O.2    11  GLN11      -0.2718
     19  CB        37.9300   -1.9690   18.6240 C.3    11  GLN11       0.0381
     20  CG        38.3780   -2.4570   17.2640 C.3    11  GLN11       0.0905
     21  CD        38.8660   -3.8810   17.3460 C.2    11  GLN11       0.2608
     22  OE1       38.1670   -4.8430   17.0800 O.2    11  GLN11      -0.2717
     23  NE2       40.0970   -4.0820   17.7550 N.am   11  GLN11      -0.0878
     24  N         38.1860    0.4600   20.8470 N.am   12  HIS12      -0.1976
     25  CA        37.8560    0.6530   22.2440 C.3    12  HIS12       0.1656
     26  C         37.9100    2.0930   22.7000 C.2    12  HIS12       0.2291
     27  O         37.5380    2.3450   23.8360 O.2    12  HIS12      -0.2864
     28  CB        38.7730   -0.2150   23.1260 C.3    12  HIS12       0.0771
     29  CG        38.6900   -1.7220   22.8300 C.ar   12  HIS12       0.0820
     30  ND1       37.6830   -2.5790   23.0140 N.ar   12  HIS12      -0.2267
     31  CD2       39.7130   -2.4440   22.2490 C.ar   12  HIS12       0.1154
     32  CE1       38.0350   -3.7640   22.5800 C.ar   12  HIS12       0.1986
     33  NE2       39.2640   -3.6650   22.1170 N.ar   12  HIS12      -0.2212
     34  N         30.5850   -8.6190   16.3670 N.3    41  LYS41      -0.1231
     35  CA        31.5560   -8.9720   17.4120 C.3    41  LYS41       0.1678
     36  C         30.7890   -9.0700   18.7390 C.2    41  LYS41       0.2434
     37  O         30.2220   -8.0440   19.0950 O.2    41  LYS41      -0.2733
     38  CB        32.6290   -7.8780   17.4440 C.3    41  LYS41       0.0284
     39  CG        33.9050   -8.3010   18.1230 C.3    41  LYS41       0.0035
     40  CD        34.8230   -7.0840   18.2750 C.3    41  LYS41       0.0206
     41  CE        35.9270   -7.3160   19.3320 C.3    41  LYS41       0.1093
     42  NZ        36.2260   -6.0960   20.0760 N.3    41  LYS41      -0.1314
     43  N         30.6040  -10.1750   19.4990 N.am   42  PRO42      -0.2718
     44  CA        29.6110  -10.2590   20.5630 C.3    42  PRO42       0.1535
     45  C         29.8020   -9.3880   21.7570 C.2    42  PRO42       0.2598
     46  O         28.7940   -9.0010   22.3210 O.2    42  PRO42      -0.2715
     47  CB        29.5630  -11.7020   20.9390 C.3    42  PRO42       0.0310
     48  CG        30.9100  -12.2450   20.5270 C.3    42  PRO42       0.0237
     49  CD        31.0730  -11.5240   19.2060 C.3    42  PRO42       0.0939
     50  N         30.9890   -9.0410   22.2260 N.am   43  VAL43      -0.1964
     51  CA        31.1440   -8.1350   23.3720 C.3    43  VAL43       0.1727
     52  C         32.2160   -7.1440   22.9610 C.2    43  VAL43       0.2616
     53  O         33.2050   -7.5520   22.3220 O.2    43  VAL43      -0.2715
     54  CB        31.5700   -8.9270   24.6470 C.3    43  VAL43       0.0290
     55  CG1       32.0880   -7.9970   25.7650 C.3    43  VAL43       0.0023
     56  CG2       30.3350   -9.6840   25.1620 C.3    43  VAL43       0.0023
     57  N         31.9990   -5.8610   23.2830 N.am   44  ASN44      -0.1958
     58  CA        33.0010   -4.8640   23.0130 C.3    44  ASN44       0.1819
     59  C         32.8490   -3.7140   23.9850 C.2    44  ASN44       0.2621
     60  O         31.7260   -3.2910   24.2670 O.2    44  ASN44      -0.2715
     61  CB        32.8670   -4.3370   21.6090 C.3    44  ASN44       0.1195
     62  CG        33.9540   -3.3340   21.3570 C.2    44  ASN44       0.2630
     63  OD1       35.1060   -3.7080   21.4310 O.2    44  ASN44      -0.2716
     64  ND2       33.7030   -2.0470   21.1860 N.am   44  ASN44      -0.0877
     65  N         33.9420   -3.1900   24.5050 N.am   45  THR45      -0.1951
     66  CA        33.9010   -2.0980   25.4450 C.3    45  THR45       0.1897
     67  C         34.6720   -0.9030   24.9080 C.2    45  THR45       0.2313
     68  O         35.7860   -1.0580   24.3570 O.2    45  THR45      -0.2863
     69  CB        34.4780   -2.5840   26.7730 C.3    45  THR45       0.1794
     70  OG1       33.9250   -3.8660   27.0680 O.3    45  THR45      -0.2208
     71  CG2       34.1410   -1.6350   27.8840 C.3    45  THR45       0.0378
     72  N         46.2590  -11.7280   32.4770 N.3    65  CYS65      -0.1221
     73  CA        45.1550  -11.6460   31.5540 C.3    65  CYS65       0.1808
     74  C         44.2920  -12.8500   31.8050 C.2    65  CYS65       0.2601
     75  O         44.7480  -13.8960   32.2950 O.2    65  CYS65      -0.2717
     76  CB        45.6250  -11.7010   30.1350 C.3    65  CYS65       0.0970
     77  SG        46.8050  -10.3840   29.8180 S.3    65  CYS65      -0.0800
     78  N         43.0340  -12.7380   31.3670 N.am   66  LYS66      -0.1965
     79  CA        42.0380  -13.7860   31.5360 C.3    66  LYS66       0.1728
     80  C         42.4660  -15.1100   30.9980 C.2    66  LYS66       0.2616
     81  O         41.9730  -16.1470   31.4320 O.2    66  LYS66      -0.2715
     82  CB        40.7510  -13.4300   30.8590 C.3    66  LYS66       0.0311
     83  CG        39.7480  -12.6100   31.6380 C.3    66  LYS66       0.0038
     84  CD        38.6530  -12.5590   30.5950 C.3    66  LYS66       0.0206
     85  CE        37.5240  -11.6040   30.8560 C.3    66  LYS66       0.1093
     86  NZ        36.4650  -12.1790   31.6640 N.3    66  LYS66      -0.1314
     87  N         43.3760  -15.0890   30.0330 N.am   67  ASN67      -0.1972
     88  CA        43.8460  -16.3010   29.3870 C.3    67  ASN67       0.1688
     89  C         45.1910  -16.8200   29.8330 C.2    67  ASN67       0.2292
     90  O         45.6970  -17.7200   29.1700 O.2    67  ASN67      -0.2864
     91  CB        43.9030  -16.0890   27.8820 C.3    67  ASN67       0.1181
     92  CG        45.0400  -15.2130   27.4040 C.2    67  ASN67       0.2629
     93  OD1       45.5420  -14.2730   28.0470 O.2    67  ASN67      -0.2716
     94  ND2       45.4720  -15.5720   26.2090 N.am   67  ASN67      -0.0877
     95  N         48.1620  -14.9010   30.0700 N.3    69  GLN69      -0.1245
     96  CA        49.3130  -14.1450   29.6380 C.3    69  GLN69       0.1566
     97  C         49.5720  -13.0690   30.6580 C.2    69  GLN69       0.2260
     98  O         48.6790  -12.4010   31.1360 O.2    69  GLN69      -0.2867
     99  CB        49.0580  -13.5530   28.2410 C.3    69  GLN69       0.0367
    100  CG        48.7880  -14.5550   27.0810 C.3    69  GLN69       0.0905
    101  CD        48.8240  -13.8730   25.7120 C.2    69  GLN69       0.2608
    102  OE1       47.8640  -13.7440   24.9470 O.2    69  GLN69      -0.2717
    103  NE2       49.9740  -13.3670   25.3340 N.am   69  GLN69      -0.0878
    104  N         50.7400  -10.0320   30.5210 N.3    71  ASN71      -0.1240
    105  CA        51.0040   -8.6640   30.1030 C.3    71  ASN71       0.1653
    106  C         49.8220   -7.7160   30.1910 C.2    71  ASN71       0.2266
    107  O         49.7120   -6.7410   29.4090 O.2    71  ASN71      -0.2867
    108  CB        51.5650   -8.7100   28.6700 C.3    71  ASN71       0.1155
    109  CG        50.5720   -9.0420   27.5550 C.2    71  ASN71       0.2627
    110  OD1       50.4650   -8.3560   26.5420 O.2    71  ASN71      -0.2716
    111  ND2       49.7640  -10.0830   27.6270 N.am   71  ASN71      -0.0877
    112  N         30.0000   -0.9650   27.9650 N.3    83  ASP83      -0.1239
    113  CA        30.0410   -2.3490   27.5150 C.3    83  ASP83       0.1674
    114  C         28.9280   -2.4860   26.4740 C.2    83  ASP83       0.2266
    115  O         27.8520   -1.8980   26.6660 O.2    83  ASP83      -0.2867
    116  CB        29.7350   -3.3030   28.6550 C.3    83  ASP83       0.1410
    117  CG        30.8830   -3.7580   29.5450 C.2    83  ASP83       0.3668
    118  OD1       32.0070   -3.8550   29.0620 O.co2  83  ASP83      -0.2456
    119  OD2       30.6740   -4.0730   30.7200 O.co2  83  ASP83      -0.2456
    120  N         26.8730   -5.6810   24.3070 N.3    85  ARG85      -0.1231
    121  CA        26.7820   -7.1130   24.0370 C.3    85  ARG85       0.1694
    122  C         25.6740   -7.4290   23.0300 C.2    85  ARG85       0.2591
    123  O         24.6570   -6.7330   23.0700 O.2    85  ARG85      -0.2718
    124  CB        26.5210   -7.9100   25.3290 C.3    85  ARG85       0.0321
    125  CG        25.7430   -7.2490   26.4610 C.3    85  ARG85       0.0489
    126  CD        26.7890   -6.8890   27.5230 C.3    85  ARG85       0.2205
    127  NE        27.2260   -8.0340   28.3000 N.pl3  85  ARG85      -0.0865
    128  CZ        28.4360   -8.1510   28.8730 C.cat  85  ARG85       0.5346
    129  NH1       29.3850   -7.2080   28.7670 N.pl3  85  ARG85       0.1354
    130  NH2       28.6620   -9.2370   29.6270 N.pl3  85  ARG85       0.1354
    131  N         25.7800   -8.3620   22.0790 N.am   86  GLU86      -0.1979
    132  CA        24.6610   -8.5640   21.1780 C.3    86  GLU86       0.1602
    133  C         23.6290   -9.4380   21.8590 C.2    86  GLU86       0.2287
    134  O         23.9510  -10.3890   22.5830 O.2    86  GLU86      -0.2864
    135  CB        25.0650   -9.2210   19.8500 C.3    86  GLU86       0.0415
    136  CG        25.3240  -10.6880   19.8620 C.3    86  GLU86       0.1163
    137  CD        25.8360  -11.2440   18.5420 C.2    86  GLU86       0.3649
    138  OE1       25.2680  -10.9340   17.4800 O.co2  86  GLU86      -0.2457
    139  OE2       26.7960  -12.0230   18.6130 O.co2  86  GLU86      -0.2457
    140  N         45.7600   -5.2420   27.8780 N.3   109  ALA109     -0.1245
    141  CA        47.0530   -5.9060   27.6560 C.3   109  ALA109      0.1562
    142  C         47.9190   -4.9380   26.8110 C.2   109  ALA109      0.2260
    143  O         47.3650   -4.2490   25.9180 O.2   109  ALA109     -0.2867
    144  CB        46.8420   -7.2010   26.8910 C.3   109  ALA109      0.0290
    145  N         51.6460   -3.8410   24.5140 N.3   111  GLU111     -0.1245
    146  CA        52.7900   -4.2770   23.7320 C.3   111  GLU111      0.1567
    147  C         53.5290   -3.1600   23.0330 C.2   111  GLU111      0.2260
    148  O         52.9390   -2.1390   22.6370 O.2   111  GLU111     -0.2867
    149  CB        52.4350   -5.2470   22.6180 C.3   111  GLU111      0.0388
    150  CG        52.0410   -6.6670   22.9890 C.3   111  GLU111      0.1160
    151  CD        51.8510   -7.5960   21.7920 C.2   111  GLU111      0.3649
    152  OE1       52.1230   -7.2320   20.6420 O.co2 111  GLU111     -0.2457
    153  OE2       51.4470   -8.7280   22.0180 O.co2 111  GLU111     -0.2457
    154  N         46.8080   -2.8480   23.5640 N.3   118  VAL118     -0.1231
    155  CA        46.7050   -3.6470   22.3570 C.3   118  VAL118      0.1692
    156  C         45.4620   -4.5440   22.3300 C.2   118  VAL118      0.2592
    157  O         45.0160   -5.0440   21.2990 O.2   118  VAL118     -0.2718
    158  CB        48.0760   -4.4000   22.2970 C.3   118  VAL118      0.0266
    159  CG1       47.9810   -5.8480   21.8190 C.3   118  VAL118      0.0020
    160  CG2       48.9530   -3.6090   21.2800 C.3   118  VAL118      0.0020
    161  N         44.8410   -4.7090   23.4850 N.am  119  HIS119     -0.1962
    162  CA        43.7070   -5.6030   23.6510 C.3   119  HIS119      0.1787
    163  C         42.9740   -5.1000   24.8800 C.2   119  HIS119      0.2620
    164  O         43.6680   -4.5980   25.7670 O.2   119  HIS119     -0.2715
    165  CB        44.2730   -7.0320   23.8300 C.3   119  HIS119      0.0785
    166  CG        43.3680   -8.0250   24.5480 C.ar  119  HIS119      0.0821
    167  ND1       42.3440   -8.7370   24.0450 N.ar  119  HIS119     -0.2267
    168  CD2       43.4860   -8.2920   25.8890 C.ar  119  HIS119      0.1154
    169  CE1       41.8210   -9.4080   25.0250 C.ar  119  HIS119      0.1986
    170  NE2       42.5180   -9.1330   26.1120 N.ar  119  HIS119     -0.2212
    171  N         41.6400   -5.2510   24.9550 N.am  120  PHE120     -0.1960
    172  CA        40.8240   -4.8990   26.1210 C.3   120  PHE120      0.1771
    173  C         40.5370   -6.2520   26.7780 C.2   120  PHE120      0.2620
    174  O         40.0840   -7.1710   26.1070 O.2   120  PHE120     -0.2715
    175  CB        39.4590   -4.2570   25.7520 C.3   120  PHE120      0.0574
    176  CG        38.7440   -3.7230   26.9760 C.ar  120  PHE120     -0.0200
    177  CD1       37.9710   -4.5540   27.7530 C.ar  120  PHE120     -0.0042
    178  CD2       38.9750   -2.4350   27.3710 C.ar  120  PHE120     -0.0042
    179  CE1       37.4570   -4.0900   28.9310 C.ar  120  PHE120     -0.0003
    180  CE2       38.4530   -1.9810   28.5530 C.ar  120  PHE120     -0.0003
    181  CZ        37.6950   -2.8020   29.3440 C.ar  120  PHE120     -0.0000
    182  N         40.7680   -6.4710   28.0570 N.am  121  ASP121     -0.1957
    183  CA        40.6280   -7.7780   28.6310 C.3   121  ASP121      0.1840
    184  C         39.4650   -7.9300   29.5880 C.2   121  ASP121      0.2622
    185  O         38.7940   -8.9570   29.5390 O.2   121  ASP121     -0.2715
    186  CB        41.9490   -8.1190   29.3190 C.3   121  ASP121      0.1450
    187  CG        42.0070   -9.5500   29.8520 C.2   121  ASP121      0.3671
    188  OD1       42.2640  -10.4400   29.0430 O.co2 121  ASP121     -0.2456
    189  OD2       41.8110   -9.7690   31.0530 O.co2 121  ASP121     -0.2456
    190  N         39.1670   -6.9310   30.4250 N.am  122  ALA122     -0.1963
    191  CA        38.1550   -7.0900   31.4550 C.3   122  ALA122      0.1728
    192  C         37.9850   -5.7730   32.1700 C.2   122  ALA122      0.2616
    193  O         38.8080   -4.8900   31.9940 O.2   122  ALA122     -0.2715
    194  CB        38.5790   -8.1110   32.5100 C.3   122  ALA122      0.0334
    195  N         36.9250   -5.5880   32.9250 N.am  123  SER123     -0.1950
    196  CA        36.7890   -4.4510   33.8000 C.3   123  SER123      0.1924
    197  C         36.3970   -5.0590   35.1300 C.2   123  SER123      0.2314
    198  O         35.9300   -6.2230   35.1580 O.2   123  SER123     -0.2863
    199  CB        35.7230   -3.5280   33.3000 C.3   123  SER123      0.2116
    200  OG        34.7160   -4.1740   32.5450 O.3   123  SER123     -0.2180
@<TRIPOS>BOND
     1    14    13    1
     2    13    12    1
     3    12    11    1
     4    11    10    1
     5     1     2    1
     6    10     7    1
     7     6     7    1
     8     7     8    1
     9    34    35    1
    10     2     3    1
    11     2     5    1
    12    22    21    2
    13    20    21    1
    14    20    19    1
    15    21    23   am
    16    35    38    1
    17    35    36    1
    18    38    39    1
    19   138   137   ar
    20     8     9    2
    21     3     4    2
    22    15    16    1
    23    39    40    1
    24    40    41    1
    25   137   139   ar
    26   137   136    1
    27    19    16    1
    28    16    17    1
    29    36    37    2
    30    36    43   am
    31    49    43    1
    32    49    48    1
    33    41    42    1
    34    43    44    1
    35   135   136    1
    36   135   132    1
    37    17    18    2
    38    17    24   am
    39    48    47    1
    40    44    47    1
    41    44    45    1
    42   152   151   ar
    43    24    25    1
    44   132   133    1
    45   132   131    1
    46    64    62   am
    47   160   158    1
    48   157   156    2
    49    62    63    2
    50    62    61    1
    51    61    58    1
    52    45    50   am
    53    45    46    2
    54   151   153   ar
    55   151   150    1
    56   159   158    1
    57   133   134    2
    58   131   122   am
    59    33    31   ar
    60    33    32   ar
    61    50    51    1
    62    25    26    1
    63    25    28    1
    64    31    29   ar
    65   158   155    1
    66    53    52    2
    67   156   155    1
    68   156   161   am
    69   155   154    1
    70    32    30   ar
    71   149   150    1
    72   149   146    1
    73   148   147    2
    74    26    27    2
    75    29    30   ar
    76    29    28    1
    77    52    57   am
    78    52    51    1
    79    58    57    1
    80    58    59    1
    81   122   123    2
    82   122   121    1
    83   147   146    1
    84    51    54    1
    85   161   162    1
    86   162   165    1
    87   162   163    1
    88   146   145    1
    89   165   166    1
    90    59    60    2
    91    59    65   am
    92   121   120    1
    93   121   124    1
    94   167   166   ar
    95   167   169   ar
    96    68    67    2
    97    65    66    1
    98   166   168   ar
    99    54    56    1
   100    54    55    1
   101   163   171   am
   102   163   164    2
   103    67    66    1
   104   102   101    2
   105   171   172    1
   106   169   170   ar
   107   124   125    1
   108   103   101   am
   109    66    69    1
   110   101   100    1
   111   175   172    1
   112   175   176    1
   113   168   170   ar
   114   143   142    2
   115   174   173    2
   116   172   173    1
   117    94    92   am
   118   125   126    1
   119   114   115    2
   120   114   113    1
   121   110   109    2
   122    69    70    1
   123    69    71    1
   124   173   182   am
   125   142   141    1
   126   144   141    1
   127   176   178   ar
   128   176   177   ar
   129   100    99    1
   130   178   180   ar
   131    92    91    1
   132    92    93    2
   133   113   112    1
   134   113   116    1
   135   126   127    1
   136   109   111   am
   137   109   108    1
   138   141   140    1
   139   177   179   ar
   140    91    88    1
   141   182   183    1
   142    99    96    1
   143   127   128    2
   144   180   181   ar
   145   183   186    1
   146   183   184    1
   147   116   117    1
   148   108   105    1
   149   129   128    1
   150   128   130    1
   151   179   181   ar
   152   188   187   ar
   153   118   117   ar
   154    90    89    2
   155   186   187    1
   156    88    89    1
   157    88    87    1
   158   107   106    2
   159   185   184    2
   160   117   119   ar
   161   184   190   am
   162    96    95    1
   163    96    97    1
   164    77    76    1
   165   187   189   ar
   166    87    80   am
   167   105   106    1
   168   105   104    1
   169    76    73    1
   170   190   191    1
   171    84    85    1
   172    84    83    1
   173    97    98    2
   174    85    86    1
   175    82    79    1
   176    82    83    1
   177    80    81    2
   178    80    79    1
   179    78    79    1
   180    78    74   am
   181   191   192    1
   182   191   194    1
   183    73    74    1
   184    73    72    1
   185    74    75    2
   186   193   192    2
   187   192   195   am
   188   200   199    1
   189   195   196    1
   190   199   196    1
   191   196   197    1
   192   197   198    2
