@<TRIPOS>MOLECULE
tmp/1rcqA00.pdb
 121 114 0 0 0
SMALL
GASTEIGER

@<TRIPOS>ATOM
      1  N         11.1400   31.5020   18.5260 N.3    31  VAL31      -0.1245
      2  CA        10.8550   30.9540   17.2050 C.3    31  VAL31       0.1561
      3  C         11.1720   31.9930   16.1420 C.2    31  VAL31       0.2260
      4  O         10.5370   33.0300   16.0110 O.2    31  VAL31      -0.2867
      5  CB         9.3860   30.4670   17.0930 C.3    31  VAL31       0.0252
      6  CG1        9.1640   29.8910   15.6910 C.3    31  VAL31       0.0019
      7  CG2        9.0580   29.4990   18.1920 C.3    31  VAL31       0.0019
      8  N         12.0630   30.9940   12.7850 N.3    33  LYS33      -0.1245
      9  CA        11.9520   30.4850   11.4340 C.3    33  LYS33       0.1561
     10  C         11.5790   31.5820   10.4290 C.2    33  LYS33       0.2260
     11  O         11.0850   32.6730   10.7760 O.2    33  LYS33      -0.2867
     12  CB        10.9260   29.3680   11.4250 C.3    33  LYS33       0.0271
     13  CG         9.4980   29.7280   11.6090 C.3    33  LYS33       0.0035
     14  CD         8.6650   28.5120   12.0580 C.3    33  LYS33       0.0206
     15  CE         7.2110   28.9300   12.0820 C.3    33  LYS33       0.1093
     16  NZ         6.3510   28.0760   12.9130 N.3    33  LYS33      -0.1314
     17  N         10.5250   35.5750   10.9230 N.3    37  TYR37      -0.1241
     18  CA         9.2780   36.0930   10.3740 C.3    37  TYR37       0.1605
     19  C          9.5140   37.3910    9.6180 C.2    37  TYR37       0.2264
     20  O          8.7930   38.3780    9.7580 O.2    37  TYR37      -0.2867
     21  CB         8.2260   36.3490   11.4500 C.3    37  TYR37       0.0534
     22  CG         7.6940   35.1570   12.1900 C.ar   37  TYR37      -0.0201
     23  CD1        8.3790   33.9560   12.3060 C.ar   37  TYR37      -0.0009
     24  CD2        6.4370   35.2410   12.8090 C.ar   37  TYR37      -0.0009
     25  CE1        7.8260   32.8870   13.0200 C.ar   37  TYR37       0.0417
     26  CE2        5.8940   34.1870   13.5190 C.ar   37  TYR37       0.0417
     27  CZ         6.5920   32.9970   13.6230 C.ar   37  TYR37       0.1957
     28  OH         6.0680   31.9220   14.3200 O.3    37  TYR37      -0.2866
     29  N         12.4220   22.4340   13.8450 N.3    78  LEU78      -0.1245
     30  CA        11.0270   22.1880   14.1050 C.3    78  LEU78       0.1561
     31  C         10.3640   21.1340   13.2230 C.2    78  LEU78       0.2260
     32  O          9.3140   20.6040   13.6570 O.2    78  LEU78      -0.2867
     33  CB        10.2060   23.4790   13.9880 C.3    78  LEU78       0.0270
     34  CG        10.4110   24.5630   15.0480 C.3    78  LEU78       0.0019
     35  CD1        9.8000   25.8750   14.5660 C.3    78  LEU78       0.0001
     36  CD2        9.8260   24.1360   16.3880 C.3    78  LEU78       0.0001
     37  N         -1.2640   18.1980   11.1780 N.3   128  ARG128     -0.1245
     38  CA        -0.1470   18.6940   10.3660 C.3   128  ARG128      0.1563
     39  C          0.9240   17.6150   10.4940 C.2   128  ARG128      0.2260
     40  O          0.7510   16.5710    9.8370 O.2   128  ARG128     -0.2867
     41  CB         0.2580   20.1040   10.7920 C.3   128  ARG128      0.0307
     42  CG         1.1420   20.8310    9.7940 C.3   128  ARG128      0.0489
     43  CD         1.3930   22.2890   10.1470 C.3   128  ARG128      0.2205
     44  NE         2.2110   22.4390   11.3520 N.pl3 128  ARG128     -0.0865
     45  CZ         2.7140   23.6260   11.7080 C.cat 128  ARG128      0.5346
     46  NH1        2.4500   24.7050   10.9600 N.pl3 128  ARG128      0.1354
     47  NH2        3.4640   23.7280   12.7940 N.pl3 128  ARG128      0.1354
     48  N          6.4500   16.7740   22.5200 N.3   155  MET155     -0.1245
     49  CA         5.9040   18.0170   21.9760 C.3   155  MET155      0.1570
     50  C          4.6200   17.8420   21.1950 C.2   155  MET155      0.2261
     51  O          4.3680   16.8020   20.5940 O.2   155  MET155     -0.2867
     52  CB         6.9760   18.5930   21.0530 C.3   155  MET155      0.0387
     53  CG         6.6540   19.2220   19.7550 C.3   155  MET155      0.0595
     54  SD         8.1410   19.6920   18.8370 S.3   155  MET155     -0.1393
     55  CE         7.6320   21.2430   18.0920 C.3   155  MET155      0.0692
     56  N          1.4770   20.7470   19.1090 N.3   157  HIS157     -0.1241
     57  CA         1.2080   22.0830   18.6140 C.3   157  HIS157      0.1621
     58  C         -0.2900   22.2660   18.3910 C.2   157  HIS157      0.2264
     59  O         -0.9570   21.3410   17.9370 O.2   157  HIS157     -0.2867
     60  CB         2.0350   22.3180   17.3460 C.3   157  HIS157      0.0745
     61  CG         2.1020   23.7350   16.8510 C.ar  157  HIS157      0.0817
     62  ND1        1.7470   24.1730   15.5970 N.ar  157  HIS157     -0.2268
     63  CD2        2.4870   24.8790   17.4930 C.ar  157  HIS157      0.1154
     64  CE1        1.9470   25.4740   15.5300 C.ar  157  HIS157      0.1986
     65  NE2        2.4060   25.9430   16.6490 N.ar  157  HIS157     -0.2212
     66  N          2.6140   27.7320   21.8780 N.3   191  ASN191     -0.1225
     67  CA         2.9320   28.7960   20.9350 C.3   191  ASN191      0.1785
     68  C          2.4700   30.1280   21.5110 C.2   191  ASN191      0.2598
     69  O          2.0420   30.1240   22.6830 O.2   191  ASN191     -0.2718
     70  CB         2.2870   28.5210   19.5770 C.3   191  ASN191      0.1169
     71  CG         0.7600   28.4910   19.6640 C.2   191  ASN191      0.2627
     72  OD1        0.1730   28.5510   20.7380 O.2   191  ASN191     -0.2716
     73  ND2        0.0770   28.3840   18.5110 N.am  191  ASN191     -0.0877
     74  N          2.5700   31.1960   20.7190 N.am  192  SER192     -0.1938
     75  CA         2.2300   32.5240   21.2630 C.3   192  SER192      0.2040
     76  C          0.8120   32.5920   21.7900 C.2   192  SER192      0.2485
     77  O          0.6070   33.0510   22.9200 O.2   192  SER192     -0.2729
     78  CB         2.4000   33.6530   20.2450 C.3   192  SER192      0.2129
     79  OG         3.7750   33.8660   19.9340 O.3   192  SER192     -0.2179
     80  N         -0.2370   32.2580   21.0520 N.am  193  PRO193     -0.2726
     81  CA        -1.5740   32.3850   21.6610 C.3   193  PRO193      0.1402
     82  C         -1.7380   31.5510   22.9160 C.2   193  PRO193      0.2269
     83  O         -2.4310   32.0150   23.8290 O.2   193  PRO193     -0.2865
     84  CB        -2.5020   31.9060   20.5460 C.3   193  PRO193      0.0296
     85  CG        -1.6310   31.1650   19.5820 C.3   193  PRO193      0.0237
     86  CD        -0.2920   31.8360   19.6400 C.3   193  PRO193      0.0939
     87  N          7.2330   28.1090   23.0870 N.3   207  ARG207     -0.1245
     88  CA         7.7620   28.3530   21.7510 C.3   207  ARG207      0.1563
     89  C          7.0860   29.5850   21.1440 C.2   207  ARG207      0.2260
     90  O          6.2850   29.5560   20.2090 O.2   207  ARG207     -0.2867
     91  CB         7.5770   27.1280   20.8600 C.3   207  ARG207      0.0307
     92  CG         8.0580   25.7950   21.3980 C.3   207  ARG207      0.0489
     93  CD         8.0110   24.7060   20.3460 C.3   207  ARG207      0.2205
     94  NE         6.7000   24.5180   19.7240 N.pl3 207  ARG207     -0.0865
     95  CZ         5.7780   23.7620   20.2700 C.cat 207  ARG207      0.5346
     96  NH1        5.8570   23.0940   21.3780 N.pl3 207  ARG207      0.1354
     97  NH2        4.6470   23.6520   19.6120 N.pl3 207  ARG207      0.1354
     98  N          6.6600   32.5910   18.8120 N.3   209  GLY209     -0.1210
     99  CA         7.0450   33.2060   17.5690 C.3   209  GLY209      0.1956
    100  C          6.4390   34.6080   17.4430 C.2   209  GLY209      0.2611
    101  O          7.0740   35.6200   17.7720 O.2   209  GLY209     -0.2717
    102  N          5.1920   34.6850   16.9970 N.am  210  ILE210     -0.1979
    103  CA         4.6200   35.9880   16.6300 C.3   210  ILE210      0.1595
    104  C          4.6520   37.0010   17.7640 C.2   210  ILE210      0.2287
    105  O          4.8860   38.2110   17.5050 O.2   210  ILE210     -0.2864
    106  CB         3.1820   35.8590   16.0810 C.3   210  ILE210      0.0276
    107  CG1        2.6890   37.1370   15.3820 C.3   210  ILE210      0.0022
    108  CG2        2.2600   35.4310   17.2170 C.3   210  ILE210      0.0022
    109  CD1        3.4050   37.4780   14.0900 C.3   210  ILE210      0.0001
    110  N          1.5020   37.4080   10.6390 N.3   340  TYR340     -0.1241
    111  CA         2.5630   36.4810   10.3330 C.3   340  TYR340      0.1605
    112  C          2.9500   36.5720    8.8440 C.2   340  TYR340      0.2264
    113  O          4.1110   36.5530    8.4730 O.2   340  TYR340     -0.2867
    114  CB         2.1180   35.0630   10.5700 C.3   340  TYR340      0.0534
    115  CG         1.6540   34.5880   11.9190 C.ar  340  TYR340     -0.0201
    116  CD1        0.5010   34.9720   12.6000 C.ar  340  TYR340     -0.0009
    117  CD2        2.4210   33.6420   12.5930 C.ar  340  TYR340     -0.0009
    118  CE1        0.1290   34.5030   13.8360 C.ar  340  TYR340      0.0417
    119  CE2        2.0750   33.1360   13.8330 C.ar  340  TYR340      0.0417
    120  CZ         0.9300   33.5730   14.4510 C.ar  340  TYR340      0.1957
    121  OH         0.4950   33.1130   15.6740 O.3   340  TYR340     -0.2866
@<TRIPOS>BOND
     1   113   112    2
     2   112   111    1
     3    19    20    2
     4    19    18    1
     5    42    43    1
     6    42    41    1
     7    40    39    2
     8    43    44    1
     9   111   114    1
    10   111   110    1
    11    38    39    1
    12    38    41    1
    13    38    37    1
    14    18    17    1
    15    18    21    1
    16    10    11    2
    17    10     9    1
    18   114   115    1
    19    46    45    1
    20    44    45    2
    21    12     9    1
    22    12    13    1
    23     9     8    1
    24    21    22    1
    25    13    14    1
    26    45    47    1
    27   115   117   ar
    28   115   116   ar
    29    14    15    1
    30    15    16    1
    31    22    23   ar
    32    22    24   ar
    33    23    25   ar
    34   117   119   ar
    35   116   118   ar
    36    24    26   ar
    37    25    27   ar
    38    31    32    2
    39    31    30    1
    40    26    27   ar
    41    27    28    1
    42   119   120   ar
    43   118   120   ar
    44    29    30    1
    45    33    30    1
    46    33    34    1
    47   109   107    1
    48   120   121    1
    49    35    34    1
    50    34    36    1
    51   107   106    1
    52    64    62   ar
    53    64    65   ar
    54    62    61   ar
    55     6     5    1
    56     4     3    2
    57   106   103    1
    58   106   108    1
    59     3     2    1
    60   103   102    1
    61   103   104    1
    62    65    63   ar
    63    61    60    1
    64    61    63   ar
    65   102   100   am
    66     5     2    1
    67     5     7    1
    68     2     1    1
    69    60    57    1
    70   100    99    1
    71   100   101    2
    72   105   104    2
    73    99    98    1
    74    59    58    2
    75    55    54    1
    76    58    57    1
    77    73    71   am
    78    57    56    1
    79    54    53    1
    80    70    71    1
    81    70    67    1
    82    85    86    1
    83    85    84    1
    84    97    95    1
    85    86    80    1
    86    71    72    2
    87    94    95    2
    88    94    93    1
    89    53    52    1
    90    79    78    1
    91    90    89    2
    92    78    75    1
    93    95    96    1
    94    93    92    1
    95    84    81    1
    96    51    50    2
    97    74    75    1
    98    74    68   am
    99    91    92    1
   100    91    88    1
   101    67    68    1
   102    67    66    1
   103    80    81    1
   104    80    76   am
   105    52    49    1
   106    89    88    1
   107    50    49    1
   108    75    76    1
   109    68    69    2
   110    81    82    1
   111    88    87    1
   112    76    77    2
   113    49    48    1
   114    82    83    2
