@<TRIPOS>MOLECULE
tmp/1rcqA01.pdb
 100 93 0 0 0
SMALL
GASTEIGER

@<TRIPOS>ATOM
      1  N         12.0630   30.9940   12.7850 N.3    33  LYS33      -0.1245
      2  CA        11.9520   30.4850   11.4340 C.3    33  LYS33       0.1561
      3  C         11.5790   31.5820   10.4290 C.2    33  LYS33       0.2260
      4  O         11.0850   32.6730   10.7760 O.2    33  LYS33      -0.2867
      5  CB        10.9260   29.3680   11.4250 C.3    33  LYS33       0.0271
      6  CG         9.4980   29.7280   11.6090 C.3    33  LYS33       0.0035
      7  CD         8.6650   28.5120   12.0580 C.3    33  LYS33       0.0206
      8  CE         7.2110   28.9300   12.0820 C.3    33  LYS33       0.1093
      9  NZ         6.3510   28.0760   12.9130 N.3    33  LYS33      -0.1314
     10  N         10.5250   35.5750   10.9230 N.3    37  TYR37      -0.1241
     11  CA         9.2780   36.0930   10.3740 C.3    37  TYR37       0.1605
     12  C          9.5140   37.3910    9.6180 C.2    37  TYR37       0.2264
     13  O          8.7930   38.3780    9.7580 O.2    37  TYR37      -0.2867
     14  CB         8.2260   36.3490   11.4500 C.3    37  TYR37       0.0534
     15  CG         7.6940   35.1570   12.1900 C.ar   37  TYR37      -0.0201
     16  CD1        8.3790   33.9560   12.3060 C.ar   37  TYR37      -0.0009
     17  CD2        6.4370   35.2410   12.8090 C.ar   37  TYR37      -0.0009
     18  CE1        7.8260   32.8870   13.0200 C.ar   37  TYR37       0.0417
     19  CE2        5.8940   34.1870   13.5190 C.ar   37  TYR37       0.0417
     20  CZ         6.5920   32.9970   13.6230 C.ar   37  TYR37       0.1957
     21  OH         6.0680   31.9220   14.3200 O.3    37  TYR37      -0.2866
     22  N         12.9210   26.4360   11.0000 N.3    58  ALA58      -0.1245
     23  CA        12.1630   25.4890   10.1810 C.3    58  ALA58       0.1562
     24  C         12.9750   24.3550    9.5870 C.2    58  ALA58       0.2260
     25  O         12.4130   23.3470    9.1430 O.2    58  ALA58      -0.2867
     26  CB        11.5010   26.2390    9.0250 C.3    58  ALA58       0.0290
     27  N         12.4220   22.4340   13.8450 N.3    78  LEU78      -0.1231
     28  CA        11.0270   22.1880   14.1050 C.3    78  LEU78       0.1693
     29  C         10.3640   21.1340   13.2230 C.2    78  LEU78       0.2591
     30  O          9.3140   20.6040   13.6570 O.2    78  LEU78      -0.2718
     31  CB        10.2060   23.4790   13.9880 C.3    78  LEU78       0.0284
     32  CG        10.4110   24.5630   15.0480 C.3    78  LEU78       0.0019
     33  CD1        9.8000   25.8750   14.5660 C.3    78  LEU78       0.0001
     34  CD2        9.8260   24.1360   16.3880 C.3    78  LEU78       0.0001
     35  N         10.9380   20.8700   12.0490 N.am   79  GLU79      -0.1979
     36  CA        10.4080   19.8030   11.2240 C.3    79  GLU79       0.1602
     37  C         11.3840   18.6360   11.1490 C.2    79  GLU79       0.2287
     38  O         11.2310   17.6840   10.3640 O.2    79  GLU79      -0.2864
     39  CB        10.0770   20.3470    9.8260 C.3    79  GLU79       0.0415
     40  CG         9.1790   21.5770    9.8470 C.3    79  GLU79       0.1163
     41  CD         8.9650   22.1340    8.4460 C.2    79  GLU79       0.3649
     42  OE1        9.1080   21.3750    7.4700 O.co2  79  GLU79      -0.2457
     43  OE2        8.6520   23.3410    8.3260 O.co2  79  GLU79      -0.2457
     44  N         -4.1940   18.7850   15.3040 N.3   126  MET126     -0.1245
     45  CA        -4.0620   19.7400   14.2040 C.3   126  MET126      0.1570
     46  C         -3.9040   18.9950   12.8900 C.2   126  MET126      0.2261
     47  O         -4.2570   19.5140   11.8280 O.2   126  MET126     -0.2867
     48  CB        -2.8770   20.6770   14.4230 C.3   126  MET126      0.0387
     49  CG        -2.6790   21.7120   13.2830 C.3   126  MET126      0.0595
     50  SD        -1.4980   22.9270   13.8940 S.3   126  MET126     -0.1393
     51  CE        -1.2060   23.8790   12.4160 C.3   126  MET126      0.0692
     52  N         -1.2640   18.1980   11.1780 N.3   128  ARG128     -0.1245
     53  CA        -0.1470   18.6940   10.3660 C.3   128  ARG128      0.1563
     54  C          0.9240   17.6150   10.4940 C.2   128  ARG128      0.2260
     55  O          0.7510   16.5710    9.8370 O.2   128  ARG128     -0.2867
     56  CB         0.2580   20.1040   10.7920 C.3   128  ARG128      0.0307
     57  CG         1.1420   20.8310    9.7940 C.3   128  ARG128      0.0489
     58  CD         1.3930   22.2890   10.1470 C.3   128  ARG128      0.2205
     59  NE         2.2110   22.4390   11.3520 N.pl3 128  ARG128     -0.0865
     60  CZ         2.7140   23.6260   11.7080 C.cat 128  ARG128      0.5346
     61  NH1        2.4500   24.7050   10.9600 N.pl3 128  ARG128      0.1354
     62  NH2        3.4640   23.7280   12.7940 N.pl3 128  ARG128      0.1354
     63  N          1.4770   20.7470   19.1090 N.3   157  HIS157     -0.1241
     64  CA         1.2080   22.0830   18.6140 C.3   157  HIS157      0.1621
     65  C         -0.2900   22.2660   18.3910 C.2   157  HIS157      0.2264
     66  O         -0.9570   21.3410   17.9370 O.2   157  HIS157     -0.2867
     67  CB         2.0350   22.3180   17.3460 C.3   157  HIS157      0.0745
     68  CG         2.1020   23.7350   16.8510 C.ar  157  HIS157      0.0817
     69  ND1        1.7470   24.1730   15.5970 N.ar  157  HIS157     -0.2268
     70  CD2        2.4870   24.8790   17.4930 C.ar  157  HIS157      0.1154
     71  CE1        1.9470   25.4740   15.5300 C.ar  157  HIS157      0.1986
     72  NE2        2.4060   25.9430   16.6490 N.ar  157  HIS157     -0.2212
     73  N          2.6140   27.7320   21.8780 N.3   191  ASN191     -0.1240
     74  CA         2.9320   28.7960   20.9350 C.3   191  ASN191      0.1653
     75  C          2.4700   30.1280   21.5110 C.2   191  ASN191      0.2266
     76  O          2.0420   30.1240   22.6830 O.2   191  ASN191     -0.2867
     77  CB         2.2870   28.5210   19.5770 C.3   191  ASN191      0.1155
     78  CG         0.7600   28.4910   19.6640 C.2   191  ASN191      0.2627
     79  OD1        0.1730   28.5510   20.7380 O.2   191  ASN191     -0.2716
     80  ND2        0.0770   28.3840   18.5110 N.am  191  ASN191     -0.0877
     81  N         -3.2230   37.1980    8.3600 N.3   338  ILE338     -0.1245
     82  CA        -2.6660   37.2910    9.6860 C.3   338  ILE338      0.1561
     83  C         -1.3390   38.0280    9.6620 C.2   338  ILE338      0.2260
     84  O         -0.6590   38.0630    8.6190 O.2   338  ILE338     -0.2867
     85  CB        -2.5370   35.8680   10.2620 C.3   338  ILE338      0.0252
     86  CG1       -1.6170   34.9520    9.4610 C.3   338  ILE338      0.0019
     87  CG2       -3.9380   35.2770   10.3850 C.3   338  ILE338      0.0019
     88  CD1       -1.4710   33.5510    9.9690 C.3   338  ILE338      0.0001
     89  N          1.5020   37.4080   10.6390 N.3   340  TYR340     -0.1241
     90  CA         2.5630   36.4810   10.3330 C.3   340  TYR340      0.1605
     91  C          2.9500   36.5720    8.8440 C.2   340  TYR340      0.2264
     92  O          4.1110   36.5530    8.4730 O.2   340  TYR340     -0.2867
     93  CB         2.1180   35.0630   10.5700 C.3   340  TYR340      0.0534
     94  CG         1.6540   34.5880   11.9190 C.ar  340  TYR340     -0.0201
     95  CD1        0.5010   34.9720   12.6000 C.ar  340  TYR340     -0.0009
     96  CD2        2.4210   33.6420   12.5930 C.ar  340  TYR340     -0.0009
     97  CE1        0.1290   34.5030   13.8360 C.ar  340  TYR340      0.0417
     98  CE2        2.0750   33.1360   13.8330 C.ar  340  TYR340      0.0417
     99  CZ         0.9300   33.5730   14.4510 C.ar  340  TYR340      0.1957
    100  OH         0.4950   33.1130   15.6740 O.3   340  TYR340     -0.2866
@<TRIPOS>BOND
     1    42    41   ar
     2    43    41   ar
     3    81    82    1
     4    41    40    1
     5    92    91    2
     6    84    83    2
     7    91    90    1
     8    26    23    1
     9    25    24    2
    10    86    88    1
    11    86    85    1
    12    24    23    1
    13    12    13    2
    14    12    11    1
    15    83    82    1
    16    82    85    1
    17    57    58    1
    18    57    56    1
    19    39    40    1
    20    39    36    1
    21    55    54    2
    22    58    59    1
    23    23    22    1
    24    85    87    1
    25    90    93    1
    26    90    89    1
    27    38    37    2
    28    53    54    1
    29    53    56    1
    30    53    52    1
    31    11    10    1
    32    11    14    1
    33     3     4    2
    34     3     2    1
    35    93    94    1
    36    61    60    1
    37    37    36    1
    38    36    35    1
    39    59    60    2
    40     5     2    1
    41     5     6    1
    42     2     1    1
    43    14    15    1
    44     6     7    1
    45    60    62    1
    46    47    46    2
    47    94    96   ar
    48    94    95   ar
    49    35    29   am
    50     7     8    1
    51     8     9    1
    52    15    16   ar
    53    15    17   ar
    54    16    18   ar
    55    51    50    1
    56    96    98   ar
    57    95    97   ar
    58    17    19   ar
    59    46    45    1
    60    18    20   ar
    61    29    30    2
    62    29    28    1
    63    49    50    1
    64    49    48    1
    65    19    20   ar
    66    20    21    1
    67    98    99   ar
    68    97    99   ar
    69    27    28    1
    70    31    28    1
    71    31    32    1
    72    45    48    1
    73    45    44    1
    74    99   100    1
    75    33    32    1
    76    32    34    1
    77    71    69   ar
    78    71    72   ar
    79    69    68   ar
    80    72    70   ar
    81    68    67    1
    82    68    70   ar
    83    67    64    1
    84    66    65    2
    85    65    64    1
    86    80    78   am
    87    64    63    1
    88    77    78    1
    89    77    74    1
    90    78    79    2
    91    74    75    1
    92    74    73    1
    93    75    76    2
