@<TRIPOS>MOLECULE
tmp/1rd4A00.pdb
 198 187 0 0 0
SMALL
GASTEIGER

@<TRIPOS>ATOM
      1  N        -11.4380   -8.6360   -6.9560 N.3     3  VAL3       -0.1245
      2  CA       -10.2440   -8.4590   -6.1360 C.3     3  VAL3        0.1561
      3  C        -10.2130   -7.1190   -5.4130 C.2     3  VAL3        0.2260
      4  O        -10.2790   -6.0600   -6.0430 O.2     3  VAL3       -0.2867
      5  CB        -8.9490   -8.5690   -6.9670 C.3     3  VAL3        0.0252
      6  CG1       -7.7370   -8.5620   -6.0260 C.3     3  VAL3        0.0019
      7  CG2       -8.9700   -9.8390   -7.7910 C.3     3  VAL3        0.0019
      8  N         -7.9920   -4.7360   -3.4300 N.3     5  LEU5       -0.1245
      9  CA        -6.5880   -4.4470   -3.1650 C.3     5  LEU5        0.1561
     10  C         -6.3880   -3.1520   -2.3870 C.2     5  LEU5        0.2260
     11  O         -6.9160   -2.1050   -2.7540 O.2     5  LEU5       -0.2867
     12  CB        -5.8200   -4.3750   -4.4870 C.3     5  LEU5        0.0270
     13  CG        -4.3180   -4.0900   -4.4440 C.3     5  LEU5        0.0019
     14  CD1       -3.6880   -4.6450   -5.6990 C.3     5  LEU5        0.0001
     15  CD2       -4.0540   -2.5920   -4.2910 C.3     5  LEU5        0.0001
     16  N         -3.6260   -0.3790   -0.7450 N.3     7  PHE7       -0.1241
     17  CA        -2.2800    0.1750   -0.7980 C.3     7  PHE7        0.1605
     18  C         -1.9690    0.7320    0.5910 C.2     7  PHE7        0.2264
     19  O         -2.6660    1.6410    1.0600 O.2     7  PHE7       -0.2867
     20  CB        -2.1820    1.3210   -1.8150 C.3     7  PHE7        0.0534
     21  CG        -2.1640    0.8690   -3.2540 C.ar    7  PHE7       -0.0203
     22  CD1       -3.2870    1.0050   -4.0600 C.ar    7  PHE7       -0.0042
     23  CD2       -1.0220    0.2860   -3.7960 C.ar    7  PHE7       -0.0042
     24  CE1       -3.2720    0.5620   -5.3930 C.ar    7  PHE7       -0.0003
     25  CE2       -1.0000   -0.1560   -5.1190 C.ar    7  PHE7       -0.0003
     26  CZ        -2.1280   -0.0170   -5.9160 C.ar    7  PHE7       -0.0000
     27  N          3.1710    5.9600   -8.2250 N.3    26  PHE26      -0.1241
     28  CA         3.2450    4.5400   -8.4980 C.3    26  PHE26       0.1605
     29  C          1.8770    3.9230   -8.2500 C.2    26  PHE26       0.2264
     30  O          1.3650    3.1890   -9.0870 O.2    26  PHE26      -0.2867
     31  CB         4.2820    3.8500   -7.5950 C.3    26  PHE26       0.0534
     32  CG         4.2830    2.3480   -7.7220 C.ar   26  PHE26      -0.0203
     33  CD1        4.8120    1.7310   -8.8530 C.ar   26  PHE26      -0.0042
     34  CD2        3.6920    1.5580   -6.7470 C.ar   26  PHE26      -0.0042
     35  CE1        4.7470    0.3490   -9.0150 C.ar   26  PHE26      -0.0003
     36  CE2        3.6210    0.1730   -6.8960 C.ar   26  PHE26      -0.0003
     37  CZ         4.1500   -0.4300   -8.0380 C.ar   26  PHE26      -0.0000
     38  N         -0.6370    2.0140  -11.0700 N.3    30  VAL30      -0.1245
     39  CA        -1.1480    0.6550  -10.9150 C.3    30  VAL30       0.1561
     40  C         -2.6750    0.6950  -11.0630 C.2    30  VAL30       0.2260
     41  O         -3.2520   -0.0890  -11.8150 O.2    30  VAL30      -0.2867
     42  CB        -0.7810    0.0620   -9.5280 C.3    30  VAL30       0.0252
     43  CG1       -1.3500   -1.3290   -9.3920 C.3    30  VAL30       0.0019
     44  CG2        0.7230    0.0260   -9.3630 C.3    30  VAL30       0.0019
     45  N         -5.2130   -0.8450  -14.1040 N.3    34  LEU34      -0.1245
     46  CA        -6.2240   -1.8450  -13.7730 C.3    34  LEU34       0.1561
     47  C         -7.6350   -1.2950  -13.6100 C.2    34  LEU34       0.2260
     48  O         -8.4700   -1.9250  -12.9680 O.2    34  LEU34      -0.2867
     49  CB        -5.8400   -2.5800  -12.4950 C.3    34  LEU34       0.0270
     50  CG        -4.6110   -3.4710  -12.5670 C.3    34  LEU34       0.0019
     51  CD1       -4.4480   -4.1740  -11.2240 C.3    34  LEU34       0.0001
     52  CD2       -4.7720   -4.4940  -13.6910 C.3    34  LEU34       0.0001
     53  N        -11.2210   -5.1630  -10.2690 N.3    39  TYR39      -0.1241
     54  CA       -10.4660   -4.6850   -9.1200 C.3    39  TYR39       0.1605
     55  C        -11.0950   -3.4750   -8.4590 C.2    39  TYR39       0.2264
     56  O        -11.7340   -2.6550   -9.1100 O.2    39  TYR39      -0.2867
     57  CB        -9.0510   -4.2700   -9.5100 C.3    39  TYR39       0.0534
     58  CG        -8.0870   -5.4090   -9.6910 C.ar   39  TYR39      -0.0201
     59  CD1       -8.1300   -6.2100  -10.8220 C.ar   39  TYR39      -0.0009
     60  CD2       -7.1310   -5.6780   -8.7350 C.ar   39  TYR39      -0.0009
     61  CE1       -7.2430   -7.2480  -10.9930 C.ar   39  TYR39       0.0417
     62  CE2       -6.2430   -6.7100   -8.8900 C.ar   39  TYR39       0.0417
     63  CZ        -6.2970   -7.4970  -10.0160 C.ar   39  TYR39       0.1957
     64  OH        -5.4240   -8.5550  -10.1640 O.3    39  TYR39      -0.2866
     65  N        -11.0740  -11.4230   -3.3710 N.3   104  THR104     -0.1218
     66  CA        -9.8220  -11.9550   -2.8720 C.3   104  THR104      0.1862
     67  C         -9.1010  -10.7420   -2.2910 C.2   104  THR104      0.2287
     68  O         -8.8980   -9.7460   -2.9870 O.2   104  THR104     -0.2866
     69  CB        -8.9760  -12.5410   -4.0100 C.3   104  THR104      0.1770
     70  OG1       -9.6160  -13.7120   -4.5260 O.3   104  THR104     -0.2211
     71  CG2       -7.5800  -12.9090   -3.5070 C.3   104  THR104      0.0375
     72  N         -6.1320   -8.4320   -1.0760 N.3   106  VAL106     -0.1245
     73  CA        -4.7320   -8.2090   -1.4370 C.3   106  VAL106      0.1561
     74  C         -4.2130   -6.9310   -0.7780 C.2   106  VAL106      0.2260
     75  O         -4.9140   -5.9220   -0.7120 O.2   106  VAL106     -0.2867
     76  CB        -4.5540   -8.0800   -2.9650 C.3   106  VAL106      0.0252
     77  CG1       -3.0890   -7.8730   -3.3100 C.3   106  VAL106      0.0019
     78  CG2       -5.1010   -9.3010   -3.6440 C.3   106  VAL106      0.0019
     79  N         -0.7500   -4.3580   -0.6230 N.3   108  ILE108     -0.1245
     80  CA         0.5370   -3.9670   -1.1760 C.3   108  ILE108      0.1561
     81  C          1.1510   -2.9410   -0.2230 C.2   108  ILE108      0.2260
     82  O          0.7080   -1.7960   -0.1790 O.2   108  ILE108     -0.2867
     83  CB         0.3380   -3.3120   -2.5600 C.3   108  ILE108      0.0252
     84  CG1       -0.4200   -4.2670   -3.4780 C.3   108  ILE108      0.0019
     85  CG2        1.6770   -2.9420   -3.1810 C.3   108  ILE108      0.0019
     86  CD1       -0.8640   -3.6010   -4.7580 C.3   108  ILE108      0.0001
     87  N         -3.3450  -11.7030    1.0140 N.3   128  ILE128     -0.1245
     88  CA        -2.1620  -11.8920    0.1720 C.3   128  ILE128      0.1561
     89  C         -1.3780  -10.6050    0.3710 C.2   128  ILE128      0.2260
     90  O         -1.8750   -9.5240    0.0620 O.2   128  ILE128     -0.2867
     91  CB        -2.5480  -12.0390   -1.3220 C.3   128  ILE128      0.0252
     92  CG1       -3.3650  -13.3130   -1.5080 C.3   128  ILE128      0.0019
     93  CG2       -1.2970  -12.0680   -2.2030 C.3   128  ILE128      0.0019
     94  CD1       -3.7710  -13.5900   -2.9460 C.3   128  ILE128      0.0001
     95  N          2.0810   -8.2070   -0.2140 N.3   130  TYR130     -0.1227
     96  CA         3.2890   -7.8590   -0.9600 C.3   130  TYR130      0.1736
     97  C          3.9370   -6.6910   -0.2210 C.2   130  TYR130      0.2595
     98  O          3.2460   -5.8860    0.3940 O.2   130  TYR130     -0.2718
     99  CB         2.9550   -7.3950   -2.3870 C.3   130  TYR130      0.0548
    100  CG         2.4880   -8.4760   -3.3410 C.ar  130  TYR130     -0.0200
    101  CD1        1.1500   -8.8210   -3.4370 C.ar  130  TYR130     -0.0009
    102  CD2        3.3900   -9.1540   -4.1450 C.ar  130  TYR130     -0.0009
    103  CE1        0.7210   -9.8170   -4.3160 C.ar  130  TYR130      0.0417
    104  CE2        2.9690  -10.1540   -5.0200 C.ar  130  TYR130      0.0417
    105  CZ         1.6340  -10.4800   -5.1000 C.ar  130  TYR130      0.1957
    106  OH         1.2290  -11.4780   -5.9590 O.3   130  TYR130     -0.2866
    107  N          5.2570   -6.5940   -0.2780 N.am  131  ILE131     -0.1966
    108  CA         5.9510   -5.4980    0.3690 C.3   131  ILE131      0.1727
    109  C          7.1400   -5.0570   -0.4830 C.2   131  ILE131      0.2616
    110  O          7.9210   -5.8800   -0.9890 O.2   131  ILE131     -0.2715
    111  CB         6.4530   -5.9040    1.7730 C.3   131  ILE131      0.0290
    112  CG1        7.1120   -4.7110    2.4670 C.3   131  ILE131      0.0022
    113  CG2        7.4490   -7.0480    1.6570 C.3   131  ILE131      0.0023
    114  CD1        7.2050   -4.8380    3.9810 C.3   131  ILE131      0.0001
    115  N          7.2520   -3.7460   -0.6390 N.am  132  ILE132     -0.1977
    116  CA         8.3190   -3.1340   -1.4030 C.3   132  ILE132      0.1596
    117  C          9.1220   -2.2820   -0.4250 C.2   132  ILE132      0.2287
    118  O          8.5700   -1.4460    0.2910 O.2   132  ILE132     -0.2864
    119  CB         7.7370   -2.2580   -2.5410 C.3   132  ILE132      0.0276
    120  CG1        6.7310   -3.0880   -3.3350 C.3   132  ILE132      0.0022
    121  CG2        8.8590   -1.7540   -3.4710 C.3   132  ILE132      0.0022
    122  CD1        5.8940   -2.2940   -4.2990 C.3   132  ILE132      0.0001
    123  N         10.8130  -14.4950   -2.1170 N.3   156  SER156     -0.1202
    124  CA        11.2630  -14.1860   -3.4790 C.3   156  SER156      0.2020
    125  C         10.1130  -13.7420   -4.3700 C.2   156  SER156      0.2619
    126  O         10.3390  -13.1760   -5.4380 O.2   156  SER156     -0.2717
    127  CB        11.9140  -15.4010   -4.1510 C.3   156  SER156      0.2103
    128  OG        13.2680  -15.5600   -3.7590 O.3   156  SER156     -0.2182
    129  N          8.8870  -14.0300   -3.9470 N.am  157  GLU157     -0.1965
    130  CA         7.7210  -13.6460   -4.7220 C.3   157  GLU157      0.1733
    131  C          6.9700  -12.4640   -4.1280 C.2   157  GLU157      0.2616
    132  O          6.4310  -11.6440   -4.8620 O.2   157  GLU157     -0.2715
    133  CB         6.7450  -14.8150   -4.8580 C.3   157  GLU157      0.0429
    134  CG         5.4260  -14.4420   -5.5600 C.3   157  GLU157      0.1163
    135  CD         4.4930  -15.6290   -5.7240 C.2   157  GLU157      0.3649
    136  OE1        3.3750  -15.4590   -6.2710 O.co2 157  GLU157     -0.2457
    137  OE2        4.8860  -16.7410   -5.3030 O.co2 157  GLU157     -0.2457
    138  N          6.9270  -12.3600   -2.8070 N.am  158  PHE158     -0.1960
    139  CA         6.1830  -11.2640   -2.2030 C.3   158  PHE158      0.1771
    140  C          7.0090  -10.1350   -1.6140 C.2   158  PHE158      0.2619
    141  O          6.4610   -9.2320   -0.9820 O.2   158  PHE158     -0.2715
    142  CB         5.2380  -11.8100   -1.1470 C.3   158  PHE158      0.0574
    143  CG         4.2390  -12.7760   -1.6860 C.ar  158  PHE158     -0.0200
    144  CD1        4.4910  -14.1380   -1.6620 C.ar  158  PHE158     -0.0042
    145  CD2        3.0430  -12.3220   -2.2260 C.ar  158  PHE158     -0.0042
    146  CE1        3.5580  -15.0520   -2.1710 C.ar  158  PHE158     -0.0003
    147  CE2        2.0990  -13.2150   -2.7380 C.ar  158  PHE158     -0.0003
    148  CZ         2.3560  -14.5840   -2.7110 C.ar  158  PHE158     -0.0000
    149  N          8.3170  -10.1660   -1.8360 N.am  159  VAL159     -0.1963
    150  CA         9.1810   -9.1190   -1.3110 C.3   159  VAL159      0.1727
    151  C         10.1140   -8.5210   -2.3550 C.2   159  VAL159      0.2616
    152  O         11.0050   -9.1980   -2.8690 O.2   159  VAL159     -0.2715
    153  CB        10.0260   -9.6350   -0.1460 C.3   159  VAL159      0.0290
    154  CG1       11.0300   -8.5780    0.2560 C.3   159  VAL159      0.0023
    155  CG2        9.1120   -9.9890    1.0420 C.3   159  VAL159      0.0023
    156  N          9.9070   -7.2400   -2.6510 N.am  160  LYS160     -0.1977
    157  CA        10.7220   -6.5220   -3.6250 C.3   160  LYS160      0.1596
    158  C         11.5670   -5.4620   -2.9250 C.2   160  LYS160      0.2287
    159  O         11.0500   -4.6480   -2.1560 O.2   160  LYS160     -0.2864
    160  CB         9.8320   -5.8460   -4.6780 C.3   160  LYS160      0.0298
    161  CG        10.1320   -6.2540   -6.1260 C.3   160  LYS160      0.0038
    162  CD        11.5290   -5.8400   -6.5780 C.3   160  LYS160      0.0206
    163  CE        11.7690   -6.2610   -8.0190 C.3   160  LYS160      0.1093
    164  NZ        11.5230   -7.7170   -8.1990 N.3   160  LYS160     -0.1314
    165  N          9.6870   -1.2650  -11.6470 N.3   171  LEU171     -0.1245
    166  CA         8.7630   -2.2360  -11.0660 C.3   171  LEU171      0.1561
    167  C          7.4240   -2.2230  -11.8260 C.2   171  LEU171      0.2260
    168  O          6.8590   -3.2810  -12.1320 O.2   171  LEU171     -0.2867
    169  CB         8.5270   -1.9510   -9.5710 C.3   171  LEU171      0.0270
    170  CG         7.5980   -2.9060   -8.8170 C.3   171  LEU171      0.0019
    171  CD1        8.1730   -4.3240   -8.8290 C.3   171  LEU171      0.0001
    172  CD2        7.4350   -2.4230   -7.3760 C.3   171  LEU171      0.0001
    173  N          7.7970   -4.0600  -14.9730 N.3   174  GLU174     -0.1231
    174  CA         7.9200   -5.4930  -14.7050 C.3   174  GLU174      0.1699
    175  C          6.5470   -6.0530  -14.2940 C.2   174  GLU174      0.2592
    176  O          6.1860   -7.1700  -14.6550 O.2   174  GLU174     -0.2718
    177  CB         8.9450   -5.7140  -13.5830 C.3   174  GLU174      0.0402
    178  CG         9.1100   -7.1440  -13.0910 C.3   174  GLU174      0.1161
    179  CD         9.7450   -7.2020  -11.6820 C.2   174  GLU174      0.3649
    180  OE1       10.7490   -6.4750  -11.4410 O.co2 174  GLU174     -0.2457
    181  OE2        9.2450   -7.9730  -10.8210 O.co2 174  GLU174     -0.2457
    182  N          5.7740   -5.2500  -13.5680 N.am  175  LEU175     -0.1980
    183  CA         4.4500   -5.6450  -13.0950 C.3   175  LEU175      0.1596
    184  C          3.4540   -5.8550  -14.2450 C.2   175  LEU175      0.2287
    185  O          2.6770   -6.8130  -14.2460 O.2   175  LEU175     -0.2864
    186  CB         3.9180   -4.5680  -12.1460 C.3   175  LEU175      0.0297
    187  CG         2.9910   -4.9050  -10.9820 C.3   175  LEU175      0.0022
    188  CD1        2.1090   -3.7040  -10.7090 C.3   175  LEU175      0.0001
    189  CD2        2.1340   -6.1250  -11.2790 C.3   175  LEU175      0.0001
    190  N          2.8340   -9.0110  -16.3410 N.3   178  LYS178     -0.1245
    191  CA         2.0560  -10.0600  -15.6960 C.3   178  LYS178      0.1561
    192  C          0.5640   -9.8380  -15.8510 C.2   178  LYS178      0.2260
    193  O         -0.2390  -10.4950  -15.1800 O.2   178  LYS178     -0.2867
    194  CB         2.3800  -10.1380  -14.1970 C.3   178  LYS178      0.0271
    195  CG         3.8080  -10.5570  -13.8640 C.3   178  LYS178      0.0035
    196  CD         3.9930  -10.7760  -12.3620 C.3   178  LYS178      0.0206
    197  CE         5.4120  -11.2140  -12.0440 C.3   178  LYS178      0.1093
    198  NZ         5.6560  -11.4710  -10.5930 N.3   178  LYS178     -0.1314
@<TRIPOS>BOND
     1   190   191    1
     2   192   191    1
     3   192   193    2
     4   191   194    1
     5   173   174    1
     6   174   175    1
     7   174   177    1
     8   176   175    2
     9   175   182   am
    10   185   184    2
    11   184   183    1
    12   194   195    1
    13    45    46    1
    14   195   196    1
    15    46    47    1
    16    46    49    1
    17    52    50    1
    18    47    48    2
    19   177   178    1
    20   182   183    1
    21   183   186    1
    22   178   179    1
    23    50    49    1
    24    50    51    1
    25   196   197    1
    26   186   187    1
    27   168   167    2
    28   197   198    1
    29   167   166    1
    30    41    40    2
    31   179   180   ar
    32   179   181   ar
    33   165   166    1
    34   189   187    1
    35    38    39    1
    36   166   169    1
    37    40    39    1
    38    61    59   ar
    39    61    63   ar
    40   187   188    1
    41    39    42    1
    42    59    58   ar
    43    53    54    1
    44    64    63    1
    45    63    62   ar
    46    58    57    1
    47    58    60   ar
    48   169   170    1
    49    42    43    1
    50    42    44    1
    51    57    54    1
    52    54    55    1
    53    56    55    2
    54    30    29    2
    55    35    33   ar
    56    35    37   ar
    57    62    60   ar
    58    33    32   ar
    59   171   170    1
    60   170   172    1
    61    28    29    1
    62    28    27    1
    63    28    31    1
    64   164   163    1
    65    37    36   ar
    66   163   162    1
    67     7     5    1
    68    32    31    1
    69    32    34   ar
    70     5     2    1
    71     5     6    1
    72     1     2    1
    73    36    34   ar
    74   162   161    1
    75   136   135   ar
    76     2     3    1
    77   161   160    1
    78     4     3    2
    79   106   105    1
    80    26    24   ar
    81    26    25   ar
    82   135   134    1
    83   135   137   ar
    84    14    13    1
    85   134   133    1
    86   126   125    2
    87    24    22   ar
    88    25    23   ar
    89   105   104   ar
    90   105   103   ar
    91   104   102   ar
    92   132   131    2
    93   133   130    1
    94    86    84    1
    95   130   131    1
    96   130   129    1
    97   160   157    1
    98    70    69    1
    99    12    13    1
   100    12     9    1
   101    13    15    1
   102   125   129   am
   103   125   124    1
   104   103   101   ar
   105   122   120    1
   106   127   128    1
   107   127   124    1
   108   102   100   ar
   109   131   138   am
   110    22    21   ar
   111    69    71    1
   112    69    66    1
   113    23    21   ar
   114    78    76    1
   115   157   158    1
   116   157   156    1
   117   124   123    1
   118    84    83    1
   119   121   119    1
   120   101   100   ar
   121     8     9    1
   122    65    66    1
   123   100    99    1
   124   120   119    1
   125    77    76    1
   126    21    20    1
   127    85    83    1
   128     9    10    1
   129    68    67    2
   130    76    73    1
   131    94    92    1
   132   158   159    2
   133    66    67    1
   134   152   151    2
   135   138   139    1
   136    11    10    2
   137   147   148   ar
   138   147   145   ar
   139   148   146   ar
   140   156   151   am
   141    83    80    1
   142   119   116    1
   143    99    96    1
   144   151   150    1
   145   145   143   ar
   146   139   140    1
   147   139   142    1
   148    93    91    1
   149   146   144   ar
   150   149   140   am
   151   149   150    1
   152    20    17    1
   153   143   144   ar
   154   143   142    1
   155   140   141    2
   156    92    91    1
   157    73    72    1
   158    73    74    1
   159   116   115    1
   160   116   117    1
   161    91    88    1
   162   150   153    1
   163    80    79    1
   164    80    81    1
   165   110   109    2
   166    96    97    1
   167    96    95    1
   168    17    16    1
   169    17    18    1
   170    74    75    2
   171   115   109   am
   172   109   108    1
   173   117   118    2
   174   107    97   am
   175   107   108    1
   176    81    82    2
   177    97    98    2
   178   153   154    1
   179   153   155    1
   180    90    89    2
   181    88    89    1
   182    88    87    1
   183   108   111    1
   184    18    19    2
   185   113   111    1
   186   111   112    1
   187   112   114    1
