@<TRIPOS>MOLECULE
tmp/1rd5A00.pdb
 98 93 0 0 0
SMALL
GASTEIGER

@<TRIPOS>ATOM
      1  N         26.5760   20.2610   20.4420 N.3   126  LEU126     -0.1245
      2  CA        25.5350   20.3500   19.4400 C.3   126  LEU126      0.1561
      3  C         24.4530   19.3610   19.7550 C.2   126  LEU126      0.2260
      4  O         24.7330   18.1770   19.8920 O.2   126  LEU126     -0.2867
      5  CB        26.2310   19.9160   18.1090 C.3   126  LEU126      0.0270
      6  CG        25.3400   19.8920   16.8830 C.3   126  LEU126      0.0019
      7  CD1       24.8220   21.2090   16.6500 C.3   126  LEU126      0.0001
      8  CD2       26.2290   19.5070   15.6530 C.3   126  LEU126      0.0001
      9  N         21.5940   16.5540   19.3010 N.3   128  TYR128     -0.1241
     10  CA        21.3070   15.5120   18.2610 C.3   128  TYR128      0.1605
     11  C         20.1260   15.9800   17.3430 C.2   128  TYR128      0.2264
     12  O         20.1190   15.7400   16.1410 O.2   128  TYR128     -0.2867
     13  CB        21.0770   14.1060   18.8380 C.3   128  TYR128      0.0534
     14  CG        19.6870   13.8920   19.2880 C.ar  128  TYR128     -0.0201
     15  CD1       18.6050   13.6640   18.4090 C.ar  128  TYR128     -0.0009
     16  CD2       19.3980   13.9870   20.6360 C.ar  128  TYR128     -0.0009
     17  CE1       17.3320   13.5070   18.8960 C.ar  128  TYR128      0.0417
     18  CE2       18.1230   13.8420   21.1030 C.ar  128  TYR128      0.0417
     19  CZ        17.0750   13.6020   20.2350 C.ar  128  TYR128      0.1957
     20  OH        15.8040   13.4590   20.7170 O.3   128  TYR128     -0.2866
     21  N         21.5170   18.7270   14.7970 N.3   131  ALA131     -0.1231
     22  CA        22.7810   18.5820   14.1410 C.3   131  ALA131      0.1694
     23  C         22.6250   18.6690   12.5200 C.2   131  ALA131      0.2592
     24  O         23.4010   19.2890   11.8460 O.2   131  ALA131     -0.2718
     25  CB        23.3310   17.1780   14.4780 C.3   131  ALA131      0.0304
     26  N         21.6730   17.9630   11.9690 N.am  132  HIS132     -0.1976
     27  CA        21.4070   18.0770   10.5360 C.3   132  HIS132      0.1656
     28  C         21.0020   19.5160   10.0180 C.2   132  HIS132      0.2291
     29  O         21.5770   19.9010    9.0630 O.2   132  HIS132     -0.2864
     30  CB        20.3880   17.1020   10.0600 C.3   132  HIS132      0.0771
     31  CG        20.3320   16.9870    8.5490 C.ar  132  HIS132      0.0820
     32  ND1       21.2950   16.2770    7.8260 N.ar  132  HIS132     -0.2267
     33  CD2       19.4560   17.5050    7.6220 C.ar  132  HIS132      0.1154
     34  CE1       20.9750   16.2980    6.5320 C.ar  132  HIS132      0.1986
     35  NE2       19.8990   17.0670    6.3770 N.ar  132  HIS132     -0.2212
     36  N         24.2380   21.4530   10.0460 N.3   135  TRP135     -0.1241
     37  CA        25.0450   20.9840    8.9260 C.3   135  TRP135      0.1605
     38  C         24.6190   21.5910    7.6240 C.2   135  TRP135      0.2264
     39  O         25.4900   22.0600    6.8420 O.2   135  TRP135     -0.2867
     40  CB        25.0260   19.5180    8.8500 C.3   135  TRP135      0.0550
     41  CG        25.6060   18.9230    7.5860 C.ar  135  TRP135      0.0003
     42  CD1       26.8980   18.6790    7.3650 C.ar  135  TRP135      0.0946
     43  CD2       24.9180   18.5960    6.3680 C.ar  135  TRP135      0.0152
     44  NE1       27.0810   18.1760    6.1130 N.ar  135  TRP135     -0.2442
     45  CE2       25.8680   18.0610    5.4870 C.ar  135  TRP135      0.0810
     46  CE3       23.5870   18.6080    5.9600 C.ar  135  TRP135      0.0012
     47  CZ2       25.5170   17.5810    4.1360 C.ar  135  TRP135      0.0191
     48  CZ3       23.2240   18.1070    4.6760 C.ar  135  TRP135      0.0001
     49  CH2       24.1830   17.6160    3.7850 C.ar  135  TRP135      0.0015
     50  N         31.4740   22.0550    9.0260 N.3   145  LEU145     -0.1245
     51  CA        31.0230   21.7640   10.4000 C.3   145  LEU145      0.1561
     52  C         31.8720   20.5550   10.8260 C.2   145  LEU145      0.2260
     53  O         31.6950   19.4330   10.3360 O.2   145  LEU145     -0.2867
     54  CB        29.4970   21.5890   10.4640 C.3   145  LEU145      0.0270
     55  CG        28.9720   21.1230   11.8520 C.3   145  LEU145      0.0019
     56  CD1       29.0840   22.2480   12.8500 C.3   145  LEU145      0.0001
     57  CD2       27.4950   20.6500   11.6290 C.3   145  LEU145      0.0001
     58  N         32.9510   17.8540   13.4610 N.3   147  LEU147     -0.1301
     59  CA        32.2570   17.2150   14.5640 C.3   147  LEU147      0.1247
     60  C         33.2240   16.5700   15.6020 C.3   147  LEU147      0.2009
     61  O         34.2220   15.8750   15.1740 O.3   147  LEU147     -0.2188
     62  CB        31.3150   16.1270   14.0060 C.3   147  LEU147      0.0217
     63  CG        30.0880   16.5910   13.0890 C.3   147  LEU147      0.0015
     64  CD1       29.3260   15.5120   12.4790 C.3   147  LEU147      0.0000
     65  CD2       29.1660   17.5820   13.8710 C.3   147  LEU147      0.0000
     66  N         27.6950    4.7190   16.1170 N.3   157  ARG157     -0.1245
     67  CA        27.3670    6.1280   15.9560 C.3   157  ARG157      0.1563
     68  C         28.6550    6.9000   15.4930 C.2   157  ARG157      0.2260
     69  O         28.5550    7.9590   14.7850 O.2   157  ARG157     -0.2867
     70  CB        26.7840    6.6990   17.2900 C.3   157  ARG157      0.0307
     71  CG        25.4090    6.0130   17.5550 C.3   157  ARG157      0.0489
     72  CD        24.1970    6.8280   16.9710 C.3   157  ARG157      0.2205
     73  NE        24.2550    8.3100   17.4310 N.pl3 157  ARG157     -0.0865
     74  CZ        24.5910    9.3490   16.6660 C.cat 157  ARG157      0.5346
     75  NH1       24.9220    9.1750   15.4180 N.pl3 157  ARG157      0.1354
     76  NH2       24.5330   10.6180   17.0750 N.pl3 157  ARG157      0.1354
     77  N         28.8000    6.9630   11.8250 N.3   160  GLU160     -0.1231
     78  CA        27.8600    8.0470   11.3360 C.3   160  GLU160      0.1699
     79  C         28.4950    9.4540   11.4940 C.2   160  GLU160      0.2592
     80  O         28.5220   10.2830   10.5860 O.2   160  GLU160     -0.2718
     81  CB        26.5080    7.9420   12.0510 C.3   160  GLU160      0.0402
     82  CG        25.7460    6.7260   11.6730 C.3   160  GLU160      0.1161
     83  CD        24.4420    6.5560   12.4600 C.2   160  GLU160      0.3649
     84  OE1       24.1110    7.3900   13.4120 O.co2 160  GLU160     -0.2457
     85  OE2       23.7310    5.5850   12.1360 O.co2 160  GLU160     -0.2457
     86  N         29.1610    9.6930   12.6180 N.am  161  ILE161     -0.1980
     87  CA        29.8350   10.9590   12.8050 C.3   161  ILE161      0.1595
     88  C         30.9130   11.1980   11.7990 C.2   161  ILE161      0.2287
     89  O         31.0000   12.3150   11.2390 O.2   161  ILE161     -0.2864
     90  CB        30.3970   11.1350   14.2200 C.3   161  ILE161      0.0276
     91  CG1       29.2600   11.2130   15.2030 C.3   161  ILE161      0.0022
     92  CG2       31.2760   12.4740   14.2750 C.3   161  ILE161      0.0022
     93  CD1       29.6980   10.9440   16.6890 C.3   161  ILE161      0.0001
     94  N         29.4620   12.2860    8.5070 N.3   164  ALA164     -0.1245
     95  CA        28.8740   13.6260    8.4930 C.3   164  ALA164      0.1562
     96  C         29.9090   14.7360    8.6800 C.2   164  ALA164      0.2260
     97  O         29.6970   15.8000    8.1630 O.2   164  ALA164     -0.2867
     98  CB        27.8560   13.7520    9.5940 C.3   164  ALA164      0.0290
@<TRIPOS>BOND
     1    49    47   ar
     2    49    48   ar
     3    47    45   ar
     4    48    46   ar
     5    45    44   ar
     6    45    43   ar
     7    46    43   ar
     8    44    42   ar
     9    43    41   ar
    10    35    34   ar
    11    35    33   ar
    12    34    32   ar
    13    39    38    2
    14    42    41   ar
    15    41    40    1
    16    33    31   ar
    17    38    37    1
    18    32    31   ar
    19    97    96    2
    20    95    94    1
    21    95    96    1
    22    95    98    1
    23    31    30    1
    24    40    37    1
    25    37    36    1
    26    50    51    1
    27    29    28    2
    28    28    27    1
    29    30    27    1
    30    53    52    2
    31    51    54    1
    32    51    52    1
    33    54    55    1
    34    27    26    1
    35    80    79    2
    36    89    88    2
    37    78    79    1
    38    78    77    1
    39    78    81    1
    40    79    86   am
    41    57    55    1
    42    82    81    1
    43    82    83    1
    44    88    87    1
    45    24    23    2
    46    55    56    1
    47    26    23   am
    48    85    83   ar
    49    83    84   ar
    50    64    63    1
    51    23    22    1
    52    86    87    1
    53    87    90    1
    54    63    65    1
    55    63    62    1
    56    58    59    1
    57    62    59    1
    58    22    25    1
    59    22    21    1
    60    90    92    1
    61    90    91    1
    62    59    60    1
    63    69    68    2
    64    61    60    1
    65    91    93    1
    66    75    74    1
    67    68    67    1
    68     8     6    1
    69    67    66    1
    70    67    70    1
    71    12    11    2
    72     7     6    1
    73    74    76    1
    74    74    73    2
    75     6     5    1
    76    72    73    1
    77    72    71    1
    78    70    71    1
    79    11    10    1
    80     5     2    1
    81    10    13    1
    82    10     9    1
    83    15    17   ar
    84    15    14   ar
    85    13    14    1
    86    17    19   ar
    87    14    16   ar
    88     2     3    1
    89     2     1    1
    90     3     4    2
    91    19    20    1
    92    19    18   ar
    93    16    18   ar
