@<TRIPOS>MOLECULE
tmp/1rd8C00.pdb
 82 76 0 0 0
SMALL
GASTEIGER

@<TRIPOS>ATOM
      1  N         17.7470   19.1900   31.9820 N.3    55  LYS55      -0.1245
      2  CA        17.0600   18.0730   31.3670 C.3    55  LYS55       0.1561
      3  C         18.0400   17.2400   30.5680 C.2    55  LYS55       0.2260
      4  O         17.6210   16.3800   29.8270 O.2    55  LYS55      -0.2867
      5  CB        15.8670   18.3620   30.5860 C.3    55  LYS55       0.0271
      6  CG        16.1110   19.5270   29.6300 C.3    55  LYS55       0.0035
      7  CD        15.1620   19.4860   28.4320 C.3    55  LYS55       0.0206
      8  CE        13.6970   19.4790   28.8520 C.3    55  LYS55       0.1093
      9  NZ        12.8090   19.3120   27.6670 N.3    55  LYS55      -0.1314
     10  N         23.4040   19.6210   22.3670 N.3    65  ASN65      -0.1226
     11  CA        22.1030   19.0260   22.0970 C.3    65  ASN65       0.1770
     12  C         21.0400   20.1000   22.1790 C.2    65  ASN65       0.2439
     13  O         21.1530   20.9710   23.0310 O.2    65  ASN65      -0.2733
     14  CB        21.8000   17.9210   23.0420 C.3    65  ASN65       0.1168
     15  CG        20.5350   17.2580   22.6960 C.2    65  ASN65       0.2627
     16  OD1       19.6140   17.9390   22.3000 O.2    65  ASN65      -0.2716
     17  ND2       20.4550   15.9350   22.8170 N.am   65  ASN65      -0.0877
     18  N         20.0710   20.1360   21.2660 N.am   66  PRO66      -0.2718
     19  CA        18.9980   21.1530   21.3200 C.3    66  PRO66       0.1535
     20  C         18.2370   21.3240   22.6440 C.2    66  PRO66       0.2598
     21  O         18.2430   22.4120   23.1620 O.2    66  PRO66      -0.2715
     22  CB        18.0570   20.7120   20.2130 C.3    66  PRO66       0.0310
     23  CG        18.9750   20.1000   19.2140 C.3    66  PRO66       0.0237
     24  CD        19.9610   19.3120   20.0510 C.3    66  PRO66       0.0939
     25  N         17.5910   20.3020   23.1810 N.am   67  GLU67      -0.1978
     26  CA        16.9320   20.4350   24.4870 C.3    67  GLU67       0.1602
     27  C         17.8060   21.1700   25.5060 C.2    67  GLU67       0.2287
     28  O         17.3490   22.0010   26.2650 O.2    67  GLU67      -0.2864
     29  CB        16.5660   19.0590   25.0070 C.3    67  GLU67       0.0415
     30  CG        15.6860   18.2500   24.0570 C.3    67  GLU67       0.1163
     31  CD        14.4030   18.9700   23.6870 C.2    67  GLU67       0.3649
     32  OE1       13.6370   19.2890   24.6110 O.co2  67  GLU67      -0.2457
     33  OE2       14.1740   19.2110   22.4800 O.co2  67  GLU67      -0.2457
     34  N         18.1570   12.9270   30.4470 N.3    87  GLU87      -0.1231
     35  CA        18.1800   11.8770   29.4410 C.3    87  GLU87       0.1699
     36  C         18.6960   12.3690   28.0690 C.2    87  GLU87       0.2592
     37  O         18.9270   11.5740   27.1640 O.2    87  GLU87      -0.2718
     38  CB        16.7890   11.2220   29.3270 C.3    87  GLU87       0.0402
     39  CG        16.2630   10.4820   30.5840 C.3    87  GLU87       0.1161
     40  CD        17.2720    9.5640   31.3100 C.2    87  GLU87       0.3649
     41  OE1       18.2090   10.0900   31.9440 O.co2  87  GLU87      -0.2457
     42  OE2       17.1070    8.3200   31.3050 O.co2  87  GLU87      -0.2457
     43  N         18.9040   13.6700   27.9170 N.am   88  ASN88      -0.1960
     44  CA        19.1630   14.2310   26.6090 C.3    88  ASN88       0.1819
     45  C         20.6270   14.3830   26.3830 C.2    88  ASN88       0.2621
     46  O         21.2520   15.3680   26.7860 O.2    88  ASN88      -0.2715
     47  CB        18.4800   15.5810   26.4090 C.3    88  ASN88       0.1195
     48  CG        17.0000   15.4420   26.1320 C.2    88  ASN88       0.2630
     49  OD1       16.1470   15.8740   26.9140 O.2    88  ASN88      -0.2716
     50  ND2       16.6920   14.8270   24.9950 N.am   88  ASN88      -0.0877
     51  N         21.1960   13.4040   25.6990 N.am   89  GLY89      -0.1954
     52  CA        22.6110   13.4580   25.4230 C.3    89  GLY89       0.1869
     53  C         22.8520   13.3870   23.9520 C.2    89  GLY89       0.2309
     54  O         22.4620   14.2780   23.2230 O.2    89  GLY89      -0.2863
     55  N         21.8420   12.5790   20.9540 N.3    91  CYS91      -0.1235
     56  CA        20.6100   12.3670   20.1460 C.3    91  CYS91       0.1677
     57  C         20.7630   11.6530   18.7750 C.2    91  CYS91       0.2270
     58  O         19.7910   11.1160   18.2370 O.2    91  CYS91      -0.2867
     59  CB        19.8630   13.7070   19.9180 C.3    91  CYS91       0.0956
     60  SG        20.8600   15.1150   19.3660 S.3    91  CYS91      -0.0801
     61  N         16.6930   12.9060   14.2650 N.3   136  ALA136     -0.1245
     62  CA        17.2930   12.4560   15.5250 C.3   136  ALA136      0.1562
     63  C         17.5590   13.6330   16.4930 C.2   136  ALA136      0.2260
     64  O         17.2850   13.5180   17.6570 O.2   136  ALA136     -0.2867
     65  CB        18.5720   11.6790   15.2430 C.3   136  ALA136      0.0290
     66  N         16.1310   17.1150   16.7800 N.3   138  SER138     -0.1217
     67  CA        15.1710   18.1410   16.2850 C.3   138  SER138      0.1889
     68  C         14.7540   19.1640   17.3280 C.2   138  SER138      0.2288
     69  O         14.5340   18.8610   18.4660 O.2   138  SER138     -0.2866
     70  CB        13.9350   17.5100   15.6710 C.3   138  SER138      0.2089
     71  OG        13.8860   16.1860   16.0870 O.3   138  SER138     -0.2183
     72  N         16.3890    6.1540   17.1070 N.3   222  ARG222     -0.1245
     73  CA        15.7520    7.4440   16.8600 C.3   222  ARG222      0.1563
     74  C         15.5800    7.6330   15.3580 C.2   222  ARG222      0.2260
     75  O         15.7890    8.7070   14.8470 O.2   222  ARG222     -0.2867
     76  CB        16.6020    8.5360   17.4710 C.3   222  ARG222      0.0307
     77  CG        17.1870    8.1750   18.8310 C.3   222  ARG222      0.0489
     78  CD        17.5540    9.3840   19.6270 C.3   222  ARG222      0.2205
     79  NE        16.3520   10.0390   20.1540 N.pl3 222  ARG222     -0.0865
     80  CZ        16.1860   11.3500   20.2150 C.cat 222  ARG222      0.5346
     81  NH1       17.1360   12.1330   19.7730 N.pl3 222  ARG222      0.1354
     82  NH2       15.0950   11.9070   20.6920 N.pl3 222  ARG222      0.1354
@<TRIPOS>BOND
     1    61    62    1
     2    75    74    2
     3    65    62    1
     4    74    73    1
     5    62    63    1
     6    70    71    1
     7    70    67    1
     8    67    66    1
     9    67    68    1
    10    63    64    2
    11    73    72    1
    12    73    76    1
    13    68    69    2
    14    76    77    1
    15    58    57    2
    16    57    56    1
    17    77    78    1
    18    23    24    1
    19    23    22    1
    20    60    59    1
    21    78    79    1
    22    81    80    1
    23    59    56    1
    24    24    18    1
    25    56    55    1
    26    79    80    2
    27    22    19    1
    28    80    82    1
    29    18    19    1
    30    18    12   am
    31    19    20    1
    32    11    12    1
    33    11    10    1
    34    11    14    1
    35    12    13    2
    36    16    15    2
    37    33    31   ar
    38    20    21    2
    39    20    25   am
    40    15    17   am
    41    15    14    1
    42    25    26    1
    43    54    53    2
    44    31    30    1
    45    31    32   ar
    46    53    52    1
    47    30    29    1
    48    26    29    1
    49    26    27    1
    50    50    48   am
    51    52    51    1
    52    27    28    2
    53    51    45   am
    54    48    47    1
    55    48    49    2
    56    45    44    1
    57    45    46    2
    58    47    44    1
    59    44    43    1
    60    37    36    2
    61     9     8    1
    62    43    36   am
    63    36    35    1
    64     7     8    1
    65     7     6    1
    66    38    35    1
    67    38    39    1
    68    35    34    1
    69     6     5    1
    70     4     3    2
    71     3     2    1
    72    39    40    1
    73     5     2    1
    74    42    40   ar
    75    40    41   ar
    76     2     1    1
