@<TRIPOS>MOLECULE
tmp/1rdpA00.pdb
 106 105 0 0 0
SMALL
GASTEIGER

@<TRIPOS>ATOM
      1  N        -20.7960  -16.9500    2.8830 N.3    12  TYR12      -0.1227
      2  CA       -19.5800  -17.7130    2.6240 C.3    12  TYR12       0.1736
      3  C        -19.8380  -19.2120    2.6810 C.2    12  TYR12       0.2595
      4  O        -20.6320  -19.6700    3.4880 O.2    12  TYR12      -0.2718
      5  CB       -18.4930  -17.3200    3.6480 C.3    12  TYR12       0.0548
      6  CG       -18.0750  -15.8940    3.4460 C.ar   12  TYR12      -0.0200
      7  CD1      -18.7710  -14.8710    4.0450 C.ar   12  TYR12      -0.0009
      8  CD2      -17.0430  -15.5720    2.5840 C.ar   12  TYR12      -0.0009
      9  CE1      -18.4250  -13.5400    3.8420 C.ar   12  TYR12       0.0417
     10  CE2      -16.6810  -14.2460    2.3650 C.ar   12  TYR12       0.0417
     11  CZ       -17.3960  -13.2330    2.9910 C.ar   12  TYR12       0.1957
     12  OH       -17.0710  -11.9160    2.7640 O.3    12  TYR12      -0.2866
     13  N        -19.1410  -19.9680    1.8360 N.am   13  HIS13      -0.1961
     14  CA       -19.1660  -21.4280    1.8810 C.3    13  HIS13       0.1787
     15  C        -18.4290  -21.9130    3.1210 C.2    13  HIS13       0.2620
     16  O        -17.5000  -21.2550    3.5950 O.2    13  HIS13      -0.2715
     17  CB       -18.4760  -22.0300    0.6580 C.3    13  HIS13       0.0785
     18  CG       -18.9840  -21.5190   -0.6510 C.ar   13  HIS13       0.0821
     19  ND1      -20.3010  -21.1740   -0.8610 N.ar   13  HIS13      -0.2267
     20  CD2      -18.3470  -21.3170   -1.8320 C.ar   13  HIS13       0.1154
     21  CE1      -20.4520  -20.7800   -2.1140 C.ar   13  HIS13       0.1986
     22  NE2      -19.2800  -20.8500   -2.7220 N.ar   13  HIS13      -0.2212
     23  N        -18.8020  -23.0940    3.6030 N.am   14  ASN14      -0.1972
     24  CA       -18.0750  -23.7620    4.6770 C.3    14  ASN14       0.1688
     25  C        -18.0100  -22.9490    5.9710 C.2    14  ASN14       0.2292
     26  O        -17.0200  -22.9850    6.6950 O.2    14  ASN14      -0.2864
     27  CB       -16.6420  -24.1260    4.2220 C.3    14  ASN14       0.1181
     28  CG       -16.6150  -25.0270    2.9890 C.2    14  ASN14       0.2629
     29  OD1      -17.2620  -26.0780    2.9510 O.2    14  ASN14      -0.2716
     30  ND2      -15.8280  -24.6330    1.9870 N.am   14  ASN14      -0.0877
     31  N         -6.2360  -17.9360   11.5990 N.3    51  GLU51      -0.1245
     32  CA        -5.2920  -18.6550   10.7760 C.3    51  GLU51       0.1567
     33  C         -4.0530  -17.8370   10.5240 C.2    51  GLU51       0.2260
     34  O         -4.0930  -16.6060   10.4910 O.2    51  GLU51      -0.2867
     35  CB        -5.9280  -18.9800    9.4280 C.3    51  GLU51       0.0388
     36  CG        -6.9290  -20.0980    9.4610 C.3    51  GLU51       0.1160
     37  CD        -7.4280  -20.4650    8.0740 C.2    51  GLU51       0.3649
     38  OE1       -8.4290  -19.8710    7.6620 O.co2  51  GLU51      -0.2457
     39  OE2       -6.8310  -21.3290    7.3870 O.co2  51  GLU51      -0.2457
     40  N         -4.7100  -18.4430    0.8350 N.3    56  GLN56      -0.1231
     41  CA        -6.1750  -18.4770    0.9140 C.3    56  GLN56       0.1698
     42  C         -6.7740  -17.1160    1.2550 C.2    56  GLN56       0.2592
     43  O         -8.0060  -16.9420    1.2240 O.2    56  GLN56      -0.2718
     44  CB        -6.6310  -19.5290    1.9390 C.3    56  GLN56       0.0381
     45  CG        -6.4110  -19.1420    3.4180 C.3    56  GLN56       0.0905
     46  CD        -5.1240  -19.6630    4.0050 C.2    56  GLN56       0.2608
     47  OE1       -5.1110  -20.1540    5.1540 O.2    56  GLN56      -0.2717
     48  NE2       -4.0380  -19.4950    3.2910 N.am   56  GLN56      -0.0878
     49  N         -5.9110  -16.1670    1.5970 N.am   57  HIS57      -0.1962
     50  CA        -6.3260  -14.8260    1.9440 C.3    57  HIS57       0.1787
     51  C         -5.9620  -13.8030    0.8770 C.2    57  HIS57       0.2620
     52  O         -4.8340  -13.7970    0.4020 O.2    57  HIS57      -0.2715
     53  CB        -5.6130  -14.4260    3.2410 C.3    57  HIS57       0.0785
     54  CG        -5.9440  -15.2830    4.4240 C.ar   57  HIS57       0.0821
     55  ND1       -4.9840  -15.9150    5.1910 N.ar   57  HIS57      -0.2267
     56  CD2       -7.1360  -15.5830    4.9930 C.ar   57  HIS57       0.1154
     57  CE1       -5.5790  -16.5720    6.1690 C.ar   57  HIS57       0.1986
     58  NE2       -6.8810  -16.3570    6.0940 N.ar   57  HIS57      -0.2212
     59  N         -6.9010  -12.9290    0.5160 N.am   58  ILE58      -0.1977
     60  CA        -6.5890  -11.8150   -0.3760 C.3    58  ILE58       0.1596
     61  C         -5.9540  -10.6770    0.4150 C.2    58  ILE58       0.2287
     62  O         -6.0290  -10.6490    1.6570 O.2    58  ILE58      -0.2864
     63  CB        -7.8250  -11.3740   -1.1830 C.3    58  ILE58       0.0276
     64  CG1       -8.9540  -10.8690   -0.2780 C.3    58  ILE58       0.0022
     65  CG2       -8.3300  -12.5170   -2.0150 C.3    58  ILE58       0.0022
     66  CD1      -10.1560  -10.3220   -1.0230 C.3    58  ILE58       0.0001
     67  N         -7.6350   -8.9050    3.3370 N.3    61  GLN61      -0.1245
     68  CA        -7.8180   -9.6780    4.5460 C.3    61  GLN61       0.1566
     69  C         -6.6350   -9.5940    5.4940 C.2    61  GLN61       0.2260
     70  O         -6.8020   -9.8570    6.6810 O.2    61  GLN61      -0.2867
     71  CB        -8.1090  -11.1340    4.2180 C.3    61  GLN61       0.0367
     72  CG        -9.4250  -11.3620    3.5150 C.3    61  GLN61       0.0905
     73  CD        -9.6800  -12.8370    3.2910 C.2    61  GLN61       0.2608
     74  OE1       -9.2150  -13.3810    2.3030 O.2    61  GLN61      -0.2717
     75  NE2      -10.3940  -13.4850    4.2250 N.am   61  GLN61      -0.0878
     76  N        -14.9990  -20.6890    9.6530 N.3    88  TRP88      -0.1241
     77  CA       -14.8780  -21.7020    8.6010 C.3    88  TRP88       0.1605
     78  C        -14.6760  -23.0470    9.2940 C.2    88  TRP88       0.2264
     79  O        -13.8130  -23.1910   10.1820 O.2    88  TRP88      -0.2867
     80  CB       -13.6960  -21.3910    7.6880 C.3    88  TRP88       0.0550
     81  CG       -13.9500  -20.2630    6.7810 C.ar   88  TRP88       0.0003
     82  CD1      -14.6880  -20.2930    5.6390 C.ar   88  TRP88       0.0946
     83  CD2      -13.4460  -18.9300    6.9010 C.ar   88  TRP88       0.0152
     84  NE1      -14.6870  -19.0510    5.0550 N.ar   88  TRP88      -0.2442
     85  CE2      -13.9130  -18.2030    5.8040 C.ar   88  TRP88       0.0810
     86  CE3      -12.6120  -18.2830    7.8160 C.ar   88  TRP88       0.0012
     87  CZ2      -13.5960  -16.8590    5.6100 C.ar   88  TRP88       0.0191
     88  CZ3      -12.3120  -16.9790    7.6260 C.ar   88  TRP88       0.0001
     89  CH2      -12.7720  -16.2820    6.5210 C.ar   88  TRP88       0.0015
     90  N        -14.0540  -25.9460    7.6680 N.3    90  ASN90      -0.1225
     91  CA       -13.1580  -26.8060    6.8950 C.3    90  ASN90       0.1785
     92  C        -11.7010  -26.6340    7.3400 C.2    90  ASN90       0.2597
     93  O        -10.7590  -26.9700    6.5900 O.2    90  ASN90      -0.2718
     94  CB       -13.3130  -26.5480    5.3800 C.3    90  ASN90       0.1169
     95  CG       -12.8190  -25.1750    4.9460 C.2    90  ASN90       0.2627
     96  OD1      -12.7110  -24.2610    5.7530 O.2    90  ASN90      -0.2716
     97  ND2      -12.5200  -25.0330    3.6430 N.am   90  ASN90      -0.0877
     98  N        -11.5500  -26.1400    8.5760 N.am   91  LYS91      -0.1980
     99  CA       -10.2720  -26.0610    9.2830 C.3    91  LYS91       0.1596
    100  C        -10.4550  -26.5890   10.7090 C.2    91  LYS91       0.2287
    101  O        -11.5420  -26.4590   11.2920 O.2    91  LYS91      -0.2864
    102  CB        -9.7710  -24.6070    9.3330 C.3    91  LYS91       0.0298
    103  CG        -9.5250  -23.9870    7.9680 C.3    91  LYS91       0.0038
    104  CD        -8.2380  -24.5270    7.3800 C.3    91  LYS91       0.0206
    105  CE        -8.1840  -24.3260    5.8730 C.3    91  LYS91       0.1093
    106  NZ        -8.2240  -22.8560    5.5040 N.3    91  LYS91      -0.1314
@<TRIPOS>BOND
     1    22    21   ar
     2    22    20   ar
     3    21    19   ar
     4    65    63    1
     5    20    18   ar
     6    63    60    1
     7    63    64    1
     8    66    64    1
     9    19    18   ar
    10    18    17    1
    11    60    61    1
    12    60    59    1
    13    52    51    2
    14    61    62    2
    15    59    51   am
    16    17    14    1
    17    40    41    1
    18    51    50    1
    19    41    42    1
    20    41    44    1
    21    43    42    2
    22    42    49   am
    23    49    50    1
    24    13    14    1
    25    13     3   am
    26    14    15    1
    27    44    45    1
    28    50    53    1
    29    30    28   am
    30    74    73    2
    31    10     8   ar
    32    10    11   ar
    33     8     6   ar
    34     2     3    1
    35     2     1    1
    36     2     5    1
    37     3     4    2
    38    12    11    1
    39    29    28    2
    40    28    27    1
    41    11     9   ar
    42    15    16    2
    43    15    23   am
    44    53    54    1
    45    73    72    1
    46    73    75   am
    47    48    46   am
    48    67    68    1
    49    45    46    1
    50     6     5    1
    51     6     7   ar
    52    72    71    1
    53    23    24    1
    54    97    95   am
    55     9     7   ar
    56    46    47    2
    57    71    68    1
    58    27    24    1
    59    54    56   ar
    60    54    55   ar
    61    68    69    1
    62    24    25    1
    63    95    94    1
    64    95    96    2
    65    56    58   ar
    66    84    82   ar
    67    84    85   ar
    68    55    57   ar
    69    94    91    1
    70    69    70    2
    71   106   105    1
    72    87    85   ar
    73    87    89   ar
    74    82    81   ar
    75    85    83   ar
    76   105   104    1
    77    25    26    2
    78    58    57   ar
    79    89    88   ar
    80    93    92    2
    81    81    83   ar
    82    81    80    1
    83    91    92    1
    84    91    90    1
    85    83    86   ar
    86    92    98   am
    87   104   103    1
    88    39    37   ar
    89    88    86   ar
    90    38    37   ar
    91    80    77    1
    92   103   102    1
    93    37    36    1
    94    98    99    1
    95    77    78    1
    96    77    76    1
    97    99   102    1
    98    99   100    1
    99    78    79    2
   100    35    36    1
   101    35    32    1
   102    34    33    2
   103    33    32    1
   104   100   101    2
   105    32    31    1
