@<TRIPOS>MOLECULE
tmp/1rdsA00.pdb
 131 131 0 0 0
SMALL
GASTEIGER

@<TRIPOS>ATOM
      1  N         33.1350   40.6250   20.9360 N.3    37  TYR37      -0.1241
      2  CA        31.7030   41.0250   20.9190 C.3    37  TYR37       0.1605
      3  C         31.2120   40.7730   19.5190 C.2    37  TYR37       0.2264
      4  O         31.9640   41.0570   18.5660 O.2    37  TYR37      -0.2867
      5  CB        31.4190   42.4630   21.4370 C.3    37  TYR37       0.0534
      6  CG        31.7740   42.6350   22.8710 C.ar   37  TYR37      -0.0201
      7  CD1       30.8880   42.2290   23.8940 C.ar   37  TYR37      -0.0009
      8  CD2       32.9950   43.2050   23.2370 C.ar   37  TYR37      -0.0009
      9  CE1       31.2340   42.3970   25.2340 C.ar   37  TYR37       0.0417
     10  CE2       33.3720   43.3690   24.5690 C.ar   37  TYR37       0.0417
     11  CZ        32.4690   42.9800   25.5490 C.ar   37  TYR37       0.1957
     12  OH        32.8360   43.1310   26.8220 O.3    37  TYR37      -0.2866
     13  N         29.0180   38.5580   22.4030 N.3    39  HIS39      -0.1226
     14  CA        29.4000   37.4600   23.3010 C.3    39  HIS39       0.1752
     15  C         28.1300   36.7150   23.6960 C.2    39  HIS39       0.2596
     16  O         27.0700   37.3380   23.8140 O.2    39  HIS39      -0.2718
     17  CB        30.0410   38.0060   24.5950 C.3    39  HIS39       0.0759
     18  CG        30.9250   37.0490   25.3300 C.ar   39  HIS39       0.0818
     19  ND1       30.4680   36.2580   26.3480 N.ar   39  HIS39      -0.2268
     20  CD2       32.2550   36.7570   25.1810 C.ar   39  HIS39       0.1154
     21  CE1       31.4630   35.5000   26.8050 C.ar   39  HIS39       0.1986
     22  NE2       32.5490   35.8100   26.1180 N.ar   39  HIS39      -0.2212
     23  N         28.1960   35.4090   23.9460 N.am   40  GLU40      -0.1965
     24  CA        26.9750   34.7140   24.4020 C.3    40  GLU40       0.1733
     25  C         26.7340   35.2640   25.7850 C.2    40  GLU40       0.2616
     26  O         27.6430   35.5690   26.5880 O.2    40  GLU40      -0.2715
     27  CB        27.1480   33.1870   24.5250 C.3    40  GLU40       0.0429
     28  CG        28.2090   32.6710   25.5140 C.3    40  GLU40       0.1163
     29  CD        27.8230   32.4520   26.9400 C.2    40  GLU40       0.3649
     30  OE1       26.5820   32.3770   27.1600 O.co2  40  GLU40      -0.2457
     31  OE2       28.6640   32.4030   27.8520 O.co2  40  GLU40      -0.2457
     32  N         25.4660   35.4290   26.1270 N.am   41  TYR41      -0.1960
     33  CA        25.1430   35.9590   27.4730 C.3    41  TYR41       0.1771
     34  C         24.2560   34.9540   28.1930 C.2    41  TYR41       0.2620
     35  O         23.0910   34.7660   27.7670 O.2    41  TYR41      -0.2715
     36  CB        24.4170   37.3470   27.2530 C.3    41  TYR41       0.0574
     37  CG        23.7820   37.8110   28.5350 C.ar   41  TYR41      -0.0198
     38  CD1       24.6040   38.2710   29.5690 C.ar   41  TYR41      -0.0009
     39  CD2       22.4040   37.7780   28.7580 C.ar   41  TYR41      -0.0009
     40  CE1       24.0790   38.7040   30.7650 C.ar   41  TYR41       0.0417
     41  CE2       21.8740   38.2030   29.9830 C.ar   41  TYR41       0.0417
     42  CZ        22.7110   38.6550   30.9890 C.ar   41  TYR41       0.1957
     43  OH        22.4080   39.0770   32.2420 O.3    41  TYR41      -0.2866
     44  N         24.7460   34.3300   29.2420 N.am   42  HIS42      -0.1959
     45  CA        24.0490   33.2570   29.9650 C.3    42  HIS42       0.1787
     46  C         22.7340   33.5480   30.6350 C.2    42  HIS42       0.2620
     47  O         21.7880   32.7420   30.7640 O.2    42  HIS42      -0.2715
     48  CB        25.0070   32.5640   30.9730 C.3    42  HIS42       0.0785
     49  CG        25.4040   31.1770   30.5110 C.ar   42  HIS42       0.0821
     50  ND1       25.8770   30.8770   29.2660 N.ar   42  HIS42      -0.2267
     51  CD2       25.3920   30.0030   31.2050 C.ar   42  HIS42       0.1154
     52  CE1       26.1370   29.5820   29.1960 C.ar   42  HIS42       0.1986
     53  NE2       25.8570   29.0260   30.3610 N.ar   42  HIS42      -0.2212
     54  N         22.6120   34.8020   31.0770 N.am   43  ASP43      -0.1957
     55  CA        21.4140   35.2750   31.8020 C.3    43  ASP43       0.1840
     56  C         21.5190   34.7500   33.2080 C.2    43  ASP43       0.2622
     57  O         20.5410   34.4430   33.9150 O.2    43  ASP43      -0.2715
     58  CB        20.1110   35.1210   31.0150 C.3    43  ASP43       0.1450
     59  CG        18.9370   35.8620   31.6610 C.2    43  ASP43       0.3671
     60  OD1       19.0800   36.7610   32.5080 O.co2  43  ASP43      -0.2456
     61  OD2       17.7760   35.5330   31.4280 O.co2  43  ASP43      -0.2456
     62  N         22.7410   34.6780   33.7400 N.am   44  TYR44      -0.1960
     63  CA        22.8190   34.1390   35.1210 C.3    44  TYR44       0.1771
     64  C         22.0170   35.0560   36.0260 C.2    44  TYR44       0.2619
     65  O         21.4000   34.5850   36.9960 O.2    44  TYR44      -0.2715
     66  CB        24.1620   33.6660   35.6380 C.3    44  TYR44       0.0574
     67  CG        25.1670   34.6820   36.0550 C.ar   44  TYR44      -0.0198
     68  CD1       24.9660   35.6120   37.0870 C.ar   44  TYR44      -0.0009
     69  CD2       26.3930   34.7110   35.3910 C.ar   44  TYR44      -0.0009
     70  CE1       25.9400   36.5380   37.4440 C.ar   44  TYR44       0.0417
     71  CE2       27.3910   35.6220   35.7470 C.ar   44  TYR44       0.0417
     72  CZ        27.1610   36.5470   36.7630 C.ar   44  TYR44       0.1957
     73  OH        28.1710   37.4240   37.0630 O.3    44  TYR44      -0.2866
     74  N         22.0150   36.3550   35.7080 N.am   45  GLU45      -0.1977
     75  CA        21.2630   37.3080   36.5220 C.3    45  GLU45       0.1602
     76  C         19.8040   36.9760   36.6730 C.2    45  GLU45       0.2287
     77  O         19.2400   37.2870   37.7370 O.2    45  GLU45      -0.2864
     78  CB        21.4610   38.7380   36.0280 C.3    45  GLU45       0.0415
     79  CG        22.8490   39.2320   36.5240 C.3    45  GLU45       0.1163
     80  CD        23.9880   38.9310   35.5960 C.2    45  GLU45       0.3649
     81  OE1       23.9150   38.3000   34.5600 O.co2  45  GLU45      -0.2457
     82  OE2       25.0440   39.4180   36.0400 O.co2  45  GLU45      -0.2457
     83  N         25.2150   39.4380   23.8000 N.3    57  GLU57      -0.1196
     84  CA        25.3260   40.8350   24.2900 C.3    57  GLU57       0.1783
     85  C         26.3290   41.5060   23.3580 C.2    57  GLU57       0.2306
     86  O         27.2950   41.0220   22.7530 O.2    57  GLU57      -0.2863
     87  CB        25.8160   40.9090   25.7170 C.2    57  GLU57       0.0071
     88  CG        27.0610   40.0880   26.0490 C.2    57  GLU57       0.0834
     89  CD        27.6190   40.2820   27.4120 C.2    57  GLU57       0.3877
     90  OE1       28.4020   41.2390   27.4680 O.co2  57  GLU57      -0.2406
     91  OE2       27.3770   39.6410   28.3980 O.co2  57  GLU57      -0.2406
     92  N         25.0320   47.0680   27.7450 N.3    76  ARG76      -0.1245
     93  CA        24.8640   46.0140   26.7250 C.3    76  ARG76       0.1563
     94  C         23.4340   45.8550   26.2170 C.2    76  ARG76       0.2260
     95  O         22.5010   45.8870   27.0130 O.2    76  ARG76      -0.2867
     96  CB        25.2860   44.6370   27.2740 C.3    76  ARG76       0.0307
     97  CG        26.6410   44.5370   27.9840 C.3    76  ARG76       0.0489
     98  CD        27.7120   44.5770   26.8880 C.3    76  ARG76       0.2205
     99  NE        29.0150   44.4790   27.5300 N.pl3  76  ARG76      -0.0865
    100  CZ        29.7020   45.5170   28.0400 C.cat  76  ARG76       0.5346
    101  NH1       29.2750   46.7840   27.9130 N.pl3  76  ARG76       0.1354
    102  NH2       30.8050   45.2050   28.7250 N.pl3  76  ARG76       0.1354
    103  N         26.2010   47.4150   33.8870 N.3    91  HIS91      -0.1241
    104  CA        27.0290   47.1770   35.0780 C.3    91  HIS91       0.1621
    105  C         26.8220   48.3110   36.0780 C.2    91  HIS91       0.2264
    106  O         27.0810   48.1450   37.2900 O.2    91  HIS91      -0.2867
    107  CB        28.5120   47.0870   34.6940 C.3    91  HIS91       0.0745
    108  CG        28.8650   45.8160   33.9640 C.ar   91  HIS91       0.0817
    109  ND1       28.7220   44.5400   34.4760 N.ar   91  HIS91      -0.2268
    110  CD2       29.4040   45.6690   32.7260 C.ar   91  HIS91       0.1154
    111  CE1       29.1970   43.7070   33.5820 C.ar   91  HIS91       0.1986
    112  NE2       29.5800   44.3280   32.5130 N.ar   91  HIS91      -0.2212
    113  N         31.0640   42.5150   37.7310 N.3    97  ASP97      -0.1239
    114  CA        30.8670   42.0760   36.3470 C.3    97  ASP97       0.1674
    115  C         29.4220   41.5890   36.1480 C.2    97  ASP97       0.2266
    116  O         29.0950   40.9800   35.1140 O.2    97  ASP97      -0.2867
    117  CB        31.9080   41.0350   35.9380 C.3    97  ASP97       0.1410
    118  CG        33.0990   41.5750   35.1950 C.2    97  ASP97       0.3668
    119  OD1       33.0250   42.6490   34.5850 O.co2  97  ASP97      -0.2456
    120  OD2       34.1560   40.9020   35.2310 O.co2  97  ASP97      -0.2456
    121  N         25.2580   42.4700   36.2270 N.3    99  PHE99      -0.1241
    122  CA        24.3870   43.4520   35.6010 C.3    99  PHE99       0.1605
    123  C         23.0610   43.6670   36.3110 C.2    99  PHE99       0.2264
    124  O         22.6120   42.7990   37.0650 O.2    99  PHE99      -0.2867
    125  CB        24.0230   42.9080   34.2340 C.3    99  PHE99       0.0534
    126  CG        25.0790   42.8250   33.1990 C.ar   99  PHE99      -0.0203
    127  CD1       25.3950   44.0120   32.5240 C.ar   99  PHE99      -0.0042
    128  CD2       25.6960   41.6320   32.8450 C.ar   99  PHE99      -0.0042
    129  CE1       26.3350   44.0100   31.5130 C.ar   99  PHE99      -0.0003
    130  CE2       26.6300   41.6010   31.8120 C.ar   99  PHE99      -0.0003
    131  CZ        26.9000   42.7980   31.1590 C.ar   99  PHE99      -0.0000
@<TRIPOS>BOND
     1     4     3    2
     2     3     2    1
     3     2     1    1
     4     2     5    1
     5     5     6    1
     6    13    14    1
     7    86    85    2
     8     6     8   ar
     9     6     7   ar
    10     8    10   ar
    11    14    15    1
    12    14    17    1
    13    85    84    1
    14    15    16    2
    15    15    23   am
    16    83    84    1
    17     7     9   ar
    18    23    24    1
    19    84    87    1
    20    24    27    1
    21    24    25    1
    22    27    28    1
    23    10    11   ar
    24    17    18    1
    25    20    18   ar
    26    20    22   ar
    27     9    11   ar
    28    18    19   ar
    29    28    29    1
    30    11    12    1
    31    87    88    2
    32    25    32   am
    33    25    26    2
    34    88    89    1
    35    22    21   ar
    36    32    33    1
    37    94    93    1
    38    94    95    2
    39    19    21   ar
    40    93    96    1
    41    93    92    1
    42    98    99    1
    43    98    97    1
    44    29    30   ar
    45    29    31   ar
    46    36    33    1
    47    36    37    1
    48    96    97    1
    49    89    90   ar
    50    89    91   ar
    51    33    34    1
    52    99   100    2
    53    35    34    2
    54   101   100    1
    55   100   102    1
    56    34    44   am
    57    37    39   ar
    58    37    38   ar
    59    39    41   ar
    60    52    50   ar
    61    52    53   ar
    62    44    45    1
    63    50    49   ar
    64    38    40   ar
    65    45    46    1
    66    45    48    1
    67    41    42   ar
    68    53    51   ar
    69    49    48    1
    70    49    51   ar
    71    46    47    2
    72    46    54   am
    73    40    42   ar
    74    42    43    1
    75    58    59    1
    76    58    55    1
    77    54    55    1
    78   131   129   ar
    79   131   130   ar
    80    61    59   ar
    81   129   127   ar
    82    59    60   ar
    83    55    56    1
    84   130   128   ar
    85   112   110   ar
    86   112   111   ar
    87   127   126   ar
    88   110   108   ar
    89   128   126   ar
    90   126   125    1
    91    56    62   am
    92    56    57    2
    93   111   109   ar
    94    62    63    1
    95   103   104    1
    96   108   109   ar
    97   108   107    1
    98   125   122    1
    99    81    80   ar
   100   119   118   ar
   101   107   104    1
   102   104   105    1
   103   116   115    2
   104    63    66    1
   105    63    64    1
   106   118   120   ar
   107   118   117    1
   108    69    71   ar
   109    69    67   ar
   110    80    82   ar
   111    80    79    1
   112   122   121    1
   113   122   123    1
   114    66    67    1
   115    74    64   am
   116    74    75    1
   117    71    72   ar
   118   117   114    1
   119    64    65    2
   120    78    75    1
   121    78    79    1
   122    67    68   ar
   123   105   106    2
   124   115   114    1
   125   123   124    2
   126   114   113    1
   127    75    76    1
   128    76    77    2
   129    72    73    1
   130    72    70   ar
   131    68    70   ar
