@<TRIPOS>MOLECULE
tmp/1rdtA01.pdb
 195 185 0 0 0
SMALL
GASTEIGER

@<TRIPOS>ATOM
      1  N          3.4810   42.9310   46.7950 N.3    20  VAL20      -0.1245
      2  CA         4.5720   43.0390   45.8330 C.3    20  VAL20       0.1561
      3  C          5.8050   43.5780   46.5490 C.2    20  VAL20       0.2260
      4  O          6.9380   43.3300   46.1360 O.2    20  VAL20      -0.2867
      5  CB         4.2040   43.9890   44.6710 C.3    20  VAL20       0.0252
      6  CG1        5.3900   44.1540   43.7340 C.3    20  VAL20       0.0019
      7  CG2        3.0080   43.4380   43.9140 C.3    20  VAL20       0.0019
      8  N          7.1330   40.6750   48.9170 N.3    23  ILE23      -0.1231
      9  CA         7.7910   39.6820   48.0800 C.3    23  ILE23       0.1692
     10  C          9.1720   40.1600   47.6400 C.2    23  ILE23       0.2592
     11  O         10.1320   39.3890   47.6480 O.2    23  ILE23      -0.2718
     12  CB         6.9340   39.3630   46.8340 C.3    23  ILE23       0.0266
     13  CG1        5.6240   38.7030   47.2690 C.3    23  ILE23       0.0019
     14  CG2        7.7010   38.4550   45.8860 C.3    23  ILE23       0.0020
     15  CD1        4.6230   38.5150   46.1490 C.3    23  ILE23       0.0001
     16  N          9.2700   41.4300   47.2610 N.am   24  CYS24      -0.1970
     17  CA        10.5420   41.9930   46.8260 C.3    24  CYS24       0.1712
     18  C         11.5420   42.0740   47.9730 C.2    24  CYS24       0.2296
     19  O         12.7510   41.9890   47.7560 O.2    24  CYS24      -0.2864
     20  CB        10.3350   43.3820   46.2190 C.3    24  CYS24       0.0983
     21  SG         9.5700   43.3590   44.5850 S.3    24  CYS24      -0.0798
     22  N         11.6270   39.9140   50.5570 N.3    26  ALA26      -0.1231
     23  CA        12.0470   38.5420   50.7990 C.3    26  ALA26       0.1694
     24  C         13.1330   38.1770   49.7930 C.2    26  ALA26       0.2591
     25  O         14.1660   37.6150   50.1550 O.2    26  ALA26      -0.2718
     26  CB        10.8610   37.5980   50.6570 C.3    26  ALA26       0.0304
     27  N         12.8910   38.5080   48.5290 N.am   27  ALA27      -0.1980
     28  CA        13.8450   38.2240   47.4640 C.3    27  ALA27       0.1597
     29  C         15.1880   38.8700   47.7840 C.2    27  ALA27       0.2287
     30  O         16.2350   38.2320   47.6830 O.2    27  ALA27      -0.2864
     31  CB        13.3170   38.7500   46.1360 C.3    27  ALA27       0.0319
     32  N         16.9500   36.8380   50.3610 N.3    30  GLN30      -0.1245
     33  CA        17.4630   35.5610   49.8850 C.3    30  GLN30       0.1566
     34  C         18.6490   35.6740   48.9410 C.2    30  GLN30       0.2260
     35  O         19.3090   34.6780   48.6460 O.2    30  GLN30      -0.2867
     36  CB        16.3410   34.7560   49.2280 C.3    30  GLN30       0.0367
     37  CG        15.3630   34.2090   50.2390 C.3    30  GLN30       0.0905
     38  CD        16.0590   33.3920   51.3110 C.2    30  GLN30       0.2608
     39  OE1       16.4270   32.2370   51.0900 O.2    30  GLN30      -0.2717
     40  NE2       16.2620   33.9980   52.4770 N.am   30  GLN30      -0.0878
     41  N         20.2350   33.9580   39.5550 N.3    60  TRP60      -0.1227
     42  CA        19.6200   34.2510   40.8470 C.3    60  TRP60       0.1737
     43  C         18.0950   34.1810   40.7980 C.2    60  TRP60       0.2595
     44  O         17.4630   33.5970   41.6800 O.2    60  TRP60      -0.2718
     45  CB        20.0490   35.6320   41.3660 C.3    60  TRP60       0.0564
     46  CG        19.5050   36.7960   40.5880 C.ar   60  TRP60       0.0003
     47  CD1       20.1000   37.4340   39.5390 C.ar   60  TRP60       0.0946
     48  CD2       18.2440   37.4440   40.7910 C.ar   60  TRP60       0.0152
     49  NE1       19.2870   38.4410   39.0750 N.ar   60  TRP60      -0.2442
     50  CE2       18.1410   38.4700   39.8240 C.ar   60  TRP60       0.0810
     51  CE3       17.1870   37.2620   41.6920 C.ar   60  TRP60       0.0012
     52  CZ2       17.0240   39.3080   39.7350 C.ar   60  TRP60       0.0191
     53  CZ3       16.0740   38.0970   41.6030 C.ar   60  TRP60       0.0001
     54  CH2       16.0050   39.1070   40.6300 C.ar   60  TRP60       0.0015
     55  N         17.5100   34.7730   39.7610 N.am   61  ASN61      -0.1974
     56  CA        16.0600   34.7970   39.5970 C.3    61  ASN61       0.1688
     57  C         15.4450   33.4010   39.6340 C.2    61  ASN61       0.2292
     58  O         14.5420   33.1350   40.4330 O.2    61  ASN61      -0.2864
     59  CB        15.7040   35.5080   38.2870 C.3    61  ASN61       0.1181
     60  CG        14.2110   35.5920   38.0500 C.2    61  ASN61       0.2629
     61  OD1       13.4350   35.7890   38.9800 O.2    61  ASN61      -0.2716
     62  ND2       13.8030   35.4620   36.7950 N.am   61  ASN61      -0.0877
     63  N         16.1130   31.4190   43.0800 N.3    64  LEU64      -0.1231
     64  CA        15.2770   31.7770   44.2330 C.3    64  LEU64       0.1693
     65  C         13.8260   31.3330   44.0410 C.2    64  LEU64       0.2591
     66  O         13.1140   31.0590   45.0140 O.2    64  LEU64      -0.2718
     67  CB        15.3020   33.2950   44.4930 C.3    64  LEU64       0.0284
     68  CG        16.6010   33.9400   44.9780 C.3    64  LEU64       0.0019
     69  CD1       16.2810   35.3430   45.4670 C.3    64  LEU64       0.0001
     70  CD2       17.2080   33.1200   46.1140 C.3    64  LEU64       0.0001
     71  N         13.3740   31.3010   42.7910 N.am   65  ILE65      -0.1980
     72  CA        12.0040   30.8910   42.4910 C.3    65  ILE65       0.1595
     73  C         11.8480   29.3990   42.7360 C.2    65  ILE65       0.2287
     74  O         10.8420   28.9490   43.2850 O.2    65  ILE65      -0.2864
     75  CB        11.6350   31.2120   41.0280 C.3    65  ILE65       0.0276
     76  CG1       11.5310   32.7280   40.8580 C.3    65  ILE65       0.0022
     77  CG2       10.3360   30.5280   40.6440 C.3    65  ILE65       0.0022
     78  CD1       11.4410   33.1850   39.4170 C.3    65  ILE65       0.0001
     79  N         13.5060   27.7380   44.7870 N.3    67  SER67      -0.1202
     80  CA        13.5950   27.5890   46.2330 C.3    67  SER67       0.2020
     81  C         12.2850   27.8140   46.9860 C.2    67  SER67       0.2618
     82  O         11.8650   26.9530   47.7590 O.2    67  SER67      -0.2717
     83  CB        14.6670   28.5240   46.7930 C.3    67  SER67       0.2103
     84  OG        14.7710   28.3840   48.1990 O.3    67  SER67      -0.2182
     85  N         11.6370   28.9580   46.7830 N.am   68  PHE68      -0.1975
     86  CA        10.3890   29.1980   47.4960 C.3    68  PHE68       0.1639
     87  C          9.2710   28.3240   46.9440 C.2    68  PHE68       0.2290
     88  O          8.3210   27.9950   47.6580 O.2    68  PHE68      -0.2864
     89  CB        10.0010   30.6920   47.4740 C.3    68  PHE68       0.0560
     90  CG         9.5040   31.2010   46.1430 C.ar   68  PHE68      -0.0200
     91  CD1        8.3030   30.7480   45.6030 C.ar   68  PHE68      -0.0042
     92  CD2       10.2120   32.1830   45.4590 C.ar   68  PHE68      -0.0042
     93  CE1        7.8140   31.2670   44.4040 C.ar   68  PHE68      -0.0003
     94  CE2        9.7330   32.7100   44.2590 C.ar   68  PHE68      -0.0003
     95  CZ         8.5300   32.2500   43.7320 C.ar   68  PHE68      -0.0000
     96  N          9.5460   25.1160   48.7760 N.3    71  ARG71      -0.1245
     97  CA         9.1530   25.3500   50.1590 C.3    71  ARG71       0.1563
     98  C          7.6380   25.5240   50.2520 C.2    71  ARG71       0.2260
     99  O          7.0340   25.2410   51.2860 O.2    71  ARG71      -0.2867
    100  CB         9.8400   26.6060   50.7000 C.3    71  ARG71       0.0307
    101  CG         9.5750   26.8760   52.1740 C.3    71  ARG71       0.0489
    102  CD        10.0600   28.2590   52.5800 C.3    71  ARG71       0.2205
    103  NE        11.4560   28.4810   52.2160 N.pl3  71  ARG71      -0.0865
    104  CZ        11.8680   29.4520   51.4070 C.cat  71  ARG71       0.5346
    105  NH1       10.9930   30.2940   50.8770 N.pl3  71  ARG71       0.1354
    106  NH2       13.1570   29.5810   51.1270 N.pl3  71  ARG71       0.1354
    107  N          2.1110   30.9900   48.7700 N.3    79  ILE79      -0.1245
    108  CA         3.5600   30.9280   48.6200 C.3    79  ILE79       0.1561
    109  C          4.2410   31.2540   49.9480 C.2    79  ILE79       0.2260
    110  O          3.9600   32.2730   50.5660 O.2    79  ILE79      -0.2867
    111  CB         4.0530   31.9080   47.5250 C.3    79  ILE79       0.0252
    112  CG1        3.7860   31.3000   46.1440 C.3    79  ILE79       0.0019
    113  CG2        5.5240   32.2220   47.7160 C.3    79  ILE79       0.0019
    114  CD1        4.2210   32.1780   44.9850 C.3    79  ILE79       0.0001
    115  N          7.2750   32.4870   51.8050 N.3    81  LEU81      -0.1231
    116  CA         8.5050   33.2530   51.6430 C.3    81  LEU81       0.1693
    117  C          9.5040   32.9520   52.7550 C.2    81  LEU81       0.2591
    118  O          9.1260   32.5330   53.8500 O.2    81  LEU81      -0.2718
    119  CB         8.1910   34.7510   51.6110 C.3    81  LEU81       0.0284
    120  CG         7.3550   35.2310   50.4210 C.3    81  LEU81       0.0019
    121  CD1        7.0870   36.7230   50.5520 C.3    81  LEU81       0.0001
    122  CD2        8.0870   34.9310   49.1230 C.3    81  LEU81       0.0001
    123  N         10.7800   33.1720   52.4610 N.am   82  ALA82      -0.1980
    124  CA        11.8530   32.9230   53.4150 C.3    82  ALA82       0.1597
    125  C         11.6940   33.7590   54.6790 C.2    82  ALA82       0.2287
    126  O         12.0790   33.3310   55.7670 O.2    82  ALA82      -0.2864
    127  CB        13.1990   33.2140   52.7670 C.3    82  ALA82       0.0319
    128  N         -1.2900   40.4230   39.8510 N.3    97  VAL97      -0.1245
    129  CA        -0.3330   39.3930   39.4590 C.3    97  VAL97       0.1561
    130  C         -0.8530   37.9810   39.7180 C.2    97  VAL97       0.2260
    131  O         -0.0700   37.0450   39.8810 O.2    97  VAL97      -0.2867
    132  CB         1.0020   39.5670   40.2130 C.3    97  VAL97       0.0252
    133  CG1        1.5800   40.9430   39.9330 C.3    97  VAL97       0.0019
    134  CG2        0.7860   39.3740   41.7060 C.3    97  VAL97       0.0019
    135  N          0.3900   35.0930   36.7420 N.3   100  ILE100     -0.1231
    136  CA         1.7220   34.5240   36.9110 C.3   100  ILE100      0.1692
    137  C          1.8130   33.7320   38.2150 C.2   100  ILE100      0.2592
    138  O          2.4970   32.7120   38.2860 O.2   100  ILE100     -0.2718
    139  CB         2.8020   35.6300   36.9120 C.3   100  ILE100      0.0266
    140  CG1        4.1900   35.0090   37.0910 C.3   100  ILE100      0.0019
    141  CG2        2.5160   36.6350   38.0160 C.3   100  ILE100      0.0020
    142  CD1        4.5890   34.0640   35.9750 C.3   100  ILE100      0.0001
    143  N          1.1120   34.2070   39.2390 N.am  101  PHE101     -0.1976
    144  CA         1.1020   33.5480   40.5400 C.3   101  PHE101      0.1639
    145  C          0.4950   32.1540   40.3960 C.2   101  PHE101      0.2290
    146  O          0.9720   31.1920   40.9980 O.2   101  PHE101     -0.2864
    147  CB         0.2950   34.3900   41.5370 C.3   101  PHE101      0.0560
    148  CG         0.2810   33.8420   42.9400 C.ar  101  PHE101     -0.0200
    149  CD1       -0.6100   32.8390   43.3050 C.ar  101  PHE101     -0.0042
    150  CD2        1.1480   34.3490   43.9030 C.ar  101  PHE101     -0.0042
    151  CE1       -0.6390   32.3510   44.6100 C.ar  101  PHE101     -0.0003
    152  CE2        1.1270   33.8680   45.2090 C.ar  101  PHE101     -0.0003
    153  CZ         0.2320   32.8670   45.5640 C.ar  101  PHE101     -0.0000
    154  N          2.9550   29.7270   38.8710 N.3   104  VAL104     -0.1245
    155  CA         3.9180   29.2540   39.8560 C.3   104  VAL104      0.1561
    156  C          3.3410   28.0390   40.5740 C.2   104  VAL104      0.2260
    157  O          4.0030   27.0100   40.7080 O.2   104  VAL104     -0.2867
    158  CB         4.2260   30.3500   40.9070 C.3   104  VAL104      0.0252
    159  CG1        5.1720   29.8120   41.9650 C.3   104  VAL104      0.0019
    160  CG2        4.8300   31.5690   40.2290 C.3   104  VAL104      0.0019
    161  N          8.6540   36.7240   35.5460 N.3   187  CYS187     -0.1235
    162  CA         8.8090   37.4060   36.8260 C.3   187  CYS187      0.1677
    163  C          9.8040   38.5370   36.6130 C.2   187  CYS187      0.2270
    164  O          9.7120   39.5890   37.2420 O.2   187  CYS187     -0.2867
    165  CB         9.3370   36.4490   37.8970 C.3   187  CYS187      0.0956
    166  SG         8.1140   35.2890   38.5460 S.3   187  CYS187     -0.0801
    167  N          7.9850   41.3670   35.0030 N.3   190  HIS190     -0.1226
    168  CA         7.1730   42.0590   35.9970 C.3   190  HIS190      0.1752
    169  C          8.0620   42.9440   36.8630 C.2   190  HIS190      0.2595
    170  O          7.7810   44.1270   37.0420 O.2   190  HIS190     -0.2718
    171  CB         6.4300   41.0510   36.8780 C.3   190  HIS190      0.0759
    172  CG         5.0650   40.6910   36.3740 C.ar  190  HIS190      0.0818
    173  ND1        4.3080   39.6860   36.9350 N.ar  190  HIS190     -0.2268
    174  CD2        4.3130   41.2190   35.3800 C.ar  190  HIS190      0.1154
    175  CE1        3.1480   39.6090   36.3080 C.ar  190  HIS190      0.1986
    176  NE2        3.1250   40.5290   35.3600 N.ar  190  HIS190     -0.2212
    177  N          9.1360   42.3690   37.3980 N.am  191  LEU191     -0.1980
    178  CA        10.0620   43.1240   38.2350 C.3   191  LEU191      0.1596
    179  C         10.5230   44.3870   37.5190 C.2   191  LEU191      0.2287
    180  O         10.5510   45.4660   38.1080 O.2   191  LEU191     -0.2864
    181  CB        11.2770   42.2670   38.6020 C.3   191  LEU191      0.0297
    182  CG        11.0940   41.2330   39.7170 C.3   191  LEU191      0.0022
    183  CD1       12.3550   40.3960   39.8480 C.3   191  LEU191      0.0001
    184  CD2       10.7830   41.9400   41.0280 C.3   191  LEU191      0.0001
    185  N          7.7580   46.8270   37.7100 N.3   194  PHE194     -0.1241
    186  CA         7.5800   47.4330   39.0250 C.3   194  PHE194      0.1605
    187  C          8.7460   48.3630   39.3510 C.2   194  PHE194      0.2264
    188  O          8.6660   49.1680   40.2780 O.2   194  PHE194     -0.2867
    189  CB         7.4810   46.3420   40.0970 C.3   194  PHE194      0.0534
    190  CG         6.2140   45.5330   40.0300 C.ar  194  PHE194     -0.0203
    191  CD1        5.0060   46.0680   40.4660 C.ar  194  PHE194     -0.0042
    192  CD2        6.2290   44.2340   39.5310 C.ar  194  PHE194     -0.0042
    193  CE1        3.8310   45.3190   40.4090 C.ar  194  PHE194     -0.0003
    194  CE2        5.0610   43.4780   39.4680 C.ar  194  PHE194     -0.0003
    195  CZ         3.8600   44.0220   39.9090 C.ar  194  PHE194     -0.0000
@<TRIPOS>BOND
     1   167   168    1
     2   176   174   ar
     3   176   175   ar
     4   174   172   ar
     5   161   162    1
     6   142   140    1
     7   168   169    1
     8   168   171    1
     9   175   173   ar
    10   172   171    1
    11   172   173   ar
    12   163   162    1
    13   163   164    2
    14   135   136    1
    15    62    60   am
    16   162   165    1
    17   169   170    2
    18   169   177   am
    19   136   139    1
    20   136   137    1
    21   139   140    1
    22   139   141    1
    23   177   178    1
    24   179   180    2
    25   179   178    1
    26   185   186    1
    27   165   166    1
    28    60    59    1
    29    60    61    2
    30   137   138    2
    31   137   143   am
    32   178   181    1
    33    59    56    1
    34   181   182    1
    35   154   155    1
    36   186   187    1
    37   186   189    1
    38    49    47   ar
    39    49    50   ar
    40   143   144    1
    41   187   188    2
    42    78    76    1
    43   129   130    1
    44   129   128    1
    45   129   132    1
    46   194   192   ar
    47   194   195   ar
    48   192   190   ar
    49    47    46   ar
    50    41    42    1
    51    56    57    1
    52    56    55    1
    53    57    58    2
    54   182   183    1
    55   182   184    1
    56   130   131    2
    57    52    50   ar
    58    52    54   ar
    59    55    43   am
    60    50    48   ar
    61   155   156    1
    62   155   158    1
    63   195   193   ar
    64   133   132    1
    65   190   189    1
    66   190   191   ar
    67   132   134    1
    68   160   158    1
    69   145   144    1
    70   145   146    2
    71   193   191   ar
    72   144   147    1
    73   156   157    2
    74    46    48   ar
    75    46    45    1
    76    54    53   ar
    77    77    75    1
    78    48    51   ar
    79    43    42    1
    80    43    44    2
    81    42    45    1
    82    76    75    1
    83   158   159    1
    84    75    72    1
    85   147   148    1
    86    53    51   ar
    87    72    73    1
    88    72    71    1
    89    73    74    2
    90    71    65   am
    91   148   149   ar
    92   148   150   ar
    93    63    64    1
    94   149   151   ar
    95    95    94   ar
    96    95    93   ar
    97     6     5    1
    98   150   152   ar
    99     7     5    1
   100    65    64    1
   101    65    66    2
   102    64    67    1
   103    94    92   ar
   104    93    91   ar
   105    67    68    1
   106    21    20    1
   107   151   153   ar
   108     5     2    1
   109    79    80    1
   110    68    69    1
   111    68    70    1
   112   114   112    1
   113   152   153   ar
   114    92    90   ar
   115    91    90   ar
   116     2     3    1
   117     2     1    1
   118    14    12    1
   119    31    28    1
   120     4     3    2
   121    90    89    1
   122   112   111    1
   123    15    13    1
   124    20    17    1
   125    80    83    1
   126    80    81    1
   127    85    81   am
   128    85    86    1
   129    83    84    1
   130    17    16    1
   131    17    18    1
   132    12    13    1
   133    12     9    1
   134    87    86    1
   135    87    88    2
   136    81    82    2
   137    16    10   am
   138    28    29    1
   139    28    27    1
   140    89    86    1
   141   111   113    1
   142   111   108    1
   143    10    11    2
   144    10     9    1
   145    30    29    2
   146    19    18    2
   147     9     8    1
   148    27    24   am
   149   108   107    1
   150   108   109    1
   151    35    34    2
   152    96    97    1
   153    34    33    1
   154   122   120    1
   155    36    33    1
   156    36    37    1
   157    24    25    2
   158    24    23    1
   159    33    32    1
   160   109   110    2
   161    97    98    1
   162    97   100    1
   163    37    38    1
   164    98    99    2
   165   120   121    1
   166   120   119    1
   167    22    23    1
   168    26    23    1
   169   100   101    1
   170   105   104    1
   171    39    38    2
   172   106   104    1
   173    38    40   am
   174   104   103    2
   175   119   116    1
   176   116   115    1
   177   116   117    1
   178   101   102    1
   179   103   102    1
   180   123   117   am
   181   123   124    1
   182   117   118    2
   183   127   124    1
   184   124   125    1
   185   125   126    2
