@<TRIPOS>MOLECULE
tmp/1re0A01.pdb
 108 108 0 0 0
SMALL
GASTEIGER

@<TRIPOS>ATOM
      1  N         42.8820   10.2860   44.6440 N.3    34  PHE34      -0.1227
      2  CA        41.5970   10.0830   43.9850 C.3    34  PHE34       0.1736
      3  C         40.7250    8.9920   44.6010 C.2    34  PHE34       0.2595
      4  O         41.2240    8.0210   45.1930 O.2    34  PHE34      -0.2718
      5  CB        41.8050    9.7590   42.4990 C.3    34  PHE34       0.0547
      6  CG        42.5410   10.8270   41.7380 C.ar   34  PHE34      -0.0202
      7  CD1       43.9270   10.9170   41.8070 C.ar   34  PHE34      -0.0042
      8  CD2       41.8460   11.7420   40.9450 C.ar   34  PHE34      -0.0042
      9  CE1       44.6130   11.9000   41.0980 C.ar   34  PHE34      -0.0003
     10  CE2       42.5230   12.7310   40.2290 C.ar   34  PHE34      -0.0003
     11  CZ        43.9060   12.8120   40.3020 C.ar   34  PHE34      -0.0000
     12  N         39.4140    9.1560   44.4540 N.am   35  ASN35      -0.1960
     13  CA        38.4910    8.1520   44.9560 C.3    35  ASN35       0.1819
     14  C         38.6240    6.9590   44.0220 C.2    35  ASN35       0.2621
     15  O         38.7540    7.1220   42.8060 O.2    35  ASN35      -0.2715
     16  CB        37.0460    8.6510   44.9190 C.3    35  ASN35       0.1195
     17  CG        36.7970    9.7740   45.8850 C.2    35  ASN35       0.2630
     18  OD1       37.3780    9.8060   46.9750 O.2    35  ASN35      -0.2716
     19  ND2       35.9150   10.7020   45.5070 N.am   35  ASN35      -0.0877
     20  N         38.6150    5.7650   44.5900 N.am   36  VAL36      -0.1977
     21  CA        38.7140    4.5580   43.7880 C.3    36  VAL36       0.1596
     22  C         37.4510    3.7420   44.0310 C.2    36  VAL36       0.2287
     23  O         37.1870    3.3160   45.1570 O.2    36  VAL36      -0.2864
     24  CB        39.9600    3.7080   44.1660 C.3    36  VAL36       0.0276
     25  CG1       40.0000    2.4410   43.3090 C.3    36  VAL36       0.0022
     26  CG2       41.2330    4.5150   43.9430 C.3    36  VAL36       0.0022
     27  N         35.8540   -0.6500   37.0770 N.3    47  THR47      -0.1203
     28  CA        36.3230    0.5440   37.7460 C.3    47  THR47       0.1994
     29  C         35.7410    1.8290   37.1680 C.2    47  THR47       0.2618
     30  O         35.6910    2.0160   35.9490 O.2    47  THR47      -0.2717
     31  CB        37.8610    0.5980   37.6970 C.3    47  THR47       0.1784
     32  OG1       38.3860   -0.5410   38.3920 O.3    47  THR47      -0.2211
     33  CG2       38.3830    1.8850   38.3370 C.3    47  THR47       0.0376
     34  N         35.2910    2.7040   38.0660 N.am   48  VAL48      -0.1965
     35  CA        34.7090    3.9830   37.6780 C.3    48  VAL48       0.1727
     36  C         35.8230    4.9290   37.2680 C.2    48  VAL48       0.2616
     37  O         36.7870    5.1370   38.0060 O.2    48  VAL48      -0.2715
     38  CB        33.9110    4.6170   38.8380 C.3    48  VAL48       0.0290
     39  CG1       33.3270    5.9360   38.4070 C.3    48  VAL48       0.0023
     40  CG2       32.8040    3.6780   39.2760 C.3    48  VAL48       0.0023
     41  N         35.6860    5.5000   36.0800 N.am   49  TRP49      -0.1960
     42  CA        36.6860    6.4130   35.5640 C.3    49  TRP49       0.1771
     43  C         36.1030    7.7770   35.2080 C.2    49  TRP49       0.2619
     44  O         35.2740    7.8730   34.3000 O.2    49  TRP49      -0.2715
     45  CB        37.3340    5.8000   34.3260 C.3    49  TRP49       0.0590
     46  CG        38.4930    6.5870   33.8510 C.ar   49  TRP49       0.0006
     47  CD1       38.4690    7.6720   33.0320 C.ar   49  TRP49       0.0946
     48  CD2       39.8530    6.4070   34.2480 C.ar   49  TRP49       0.0152
     49  NE1       39.7380    8.1870   32.8980 N.ar   49  TRP49      -0.2442
     50  CE2       40.6040    7.4280   33.6390 C.ar   49  TRP49       0.0810
     51  CE3       40.5090    5.4810   35.0700 C.ar   49  TRP49       0.0012
     52  CZ2       41.9820    7.5520   33.8230 C.ar   49  TRP49       0.0191
     53  CZ3       41.8820    5.6080   35.2530 C.ar   49  TRP49       0.0001
     54  CH2       42.5980    6.6370   34.6350 C.ar   49  TRP49       0.0015
     55  N         36.5290    8.8240   35.9140 N.am   50  ASP50      -0.1971
     56  CA        36.0480   10.1810   35.6320 C.3    50  ASP50       0.1709
     57  C         36.6450   10.6470   34.3220 C.2    50  ASP50       0.2293
     58  O         37.8640   10.7060   34.1870 O.2    50  ASP50      -0.2864
     59  CB        36.4860   11.1780   36.7040 C.3    50  ASP50       0.1436
     60  CG        35.8260   10.9420   38.0260 C.2    50  ASP50       0.3671
     61  OD1       34.8450   10.1700   38.0690 O.co2  50  ASP50      -0.2456
     62  OD2       36.2810   11.5430   39.0250 O.co2  50  ASP50      -0.2456
     63  N         36.0650   13.5680   33.2100 N.3    52  GLY52      -0.1225
     64  CA        36.0900   15.0140   33.2840 C.3    52  GLY52       0.1811
     65  C         37.5310   15.4390   33.3750 C.2    52  GLY52       0.2280
     66  O         38.4140   14.6030   33.5090 O.2    52  GLY52      -0.2866
     67  N         45.7360   16.7970   31.0990 N.3    57  ILE57      -0.1245
     68  CA        46.0410   15.5890   31.8600 C.3    57  ILE57       0.1561
     69  C         45.7400   14.2570   31.1860 C.2    57  ILE57       0.2260
     70  O         46.1720   13.2190   31.6750 O.2    57  ILE57      -0.2867
     71  CB        45.3050   15.5650   33.2160 C.3    57  ILE57       0.0252
     72  CG1       43.7960   15.5820   32.9850 C.3    57  ILE57       0.0019
     73  CG2       45.7470   16.7380   34.0700 C.3    57  ILE57       0.0019
     74  CD1       43.0070   15.1270   34.1590 C.3    57  ILE57       0.0001
     75  N         48.0400   11.1240   30.8910 N.3    60  LEU60      -0.1231
     76  CA        48.2430   10.2750   32.0680 C.3    60  LEU60       0.1693
     77  C         47.2130    9.1470   32.1430 C.2    60  LEU60       0.2592
     78  O         47.3330    8.2470   32.9850 O.2    60  LEU60      -0.2718
     79  CB        48.1970   11.1130   33.3530 C.3    60  LEU60       0.0284
     80  CG        49.1970   12.2870   33.3910 C.3    60  LEU60       0.0019
     81  CD1       48.9960   13.1070   34.6680 C.3    60  LEU60       0.0001
     82  CD2       50.6300   11.7530   33.2980 C.3    60  LEU60       0.0001
     83  N         46.2070    9.1910   31.2650 N.am   61  TRP61      -0.1976
     84  CA        45.1790    8.1430   31.2270 C.3    61  TRP61       0.1640
     85  C         45.6680    6.9110   30.4680 C.2    61  TRP61       0.2290
     86  O         45.1830    5.8020   30.7010 O.2    61  TRP61      -0.2864
     87  CB        43.9040    8.6420   30.5300 C.3    61  TRP61       0.0576
     88  CG        43.1620    9.7270   31.2520 C.ar   61  TRP61       0.0006
     89  CD1       43.5550   10.3830   32.3860 C.ar   61  TRP61       0.0946
     90  CD2       41.9050   10.3060   30.8700 C.ar   61  TRP61       0.0152
     91  NE1       42.6240   11.3330   32.7310 N.ar   61  TRP61      -0.2442
     92  CE2       41.6010   11.3090   31.8200 C.ar   61  TRP61       0.0810
     93  CE3       41.0050   10.0720   29.8170 C.ar   61  TRP61       0.0012
     94  CZ2       40.4400   12.0850   31.7470 C.ar   61  TRP61       0.0191
     95  CZ3       39.8500   10.8420   29.7420 C.ar   61  TRP61       0.0001
     96  CH2       39.5770   11.8380   30.7050 C.ar   61  TRP61       0.0015
     97  N         46.1550    3.4620   32.0940 N.3    64  TYR64      -0.1241
     98  CA        44.9540    2.7730   32.5410 C.3    64  TYR64       0.1605
     99  C         44.0140    2.3100   31.4430 C.2    64  TYR64       0.2264
    100  O         43.1310    1.4960   31.6920 O.2    64  TYR64      -0.2867
    101  CB        44.1940    3.6410   33.5580 C.3    64  TYR64       0.0534
    102  CG        45.0450    4.0010   34.7550 C.ar   64  TYR64      -0.0201
    103  CD1       45.8490    5.1490   34.7500 C.ar   64  TYR64      -0.0009
    104  CD2       45.1090    3.1540   35.8630 C.ar   64  TYR64      -0.0009
    105  CE1       46.6980    5.4360   35.8220 C.ar   64  TYR64       0.0417
    106  CE2       45.9540    3.4300   36.9330 C.ar   64  TYR64       0.0417
    107  CZ        46.7450    4.5680   36.9050 C.ar   64  TYR64       0.1957
    108  OH        47.5990    4.8180   37.9490 O.3    64  TYR64      -0.2866
@<TRIPOS>BOND
     1    95    93   ar
     2    95    96   ar
     3    93    90   ar
     4    85    86    2
     5    85    84    1
     6    87    84    1
     7    87    88    1
     8    96    94   ar
     9    90    88   ar
    10    90    92   ar
    11    75    76    1
    12    67    68    1
    13    69    70    2
    14    69    68    1
    15    84    83    1
    16    88    89   ar
    17    83    77   am
    18    99   100    2
    19    99    98    1
    20    94    92   ar
    21    92    91   ar
    22    68    71    1
    23    76    77    1
    24    76    79    1
    25    97    98    1
    26    77    78    2
    27    89    91   ar
    28    98   101    1
    29    49    47   ar
    30    49    50   ar
    31    72    71    1
    32    72    74    1
    33    47    46   ar
    34    63    64    1
    35    71    73    1
    36    64    65    1
    37    82    80    1
    38    79    80    1
    39    65    66    2
    40    80    81    1
    41   101   102    1
    42    50    52   ar
    43    50    48   ar
    44    52    54   ar
    45    46    48   ar
    46    46    45    1
    47    58    57    2
    48    48    51   ar
    49    44    43    2
    50    57    56    1
    51    45    42    1
    52    54    53   ar
    53   103   102   ar
    54   103   105   ar
    55   102   104   ar
    56    51    53   ar
    57    43    42    1
    58    43    55   am
    59    42    41    1
    60    56    55    1
    61    56    59    1
    62   105   107   ar
    63   104   106   ar
    64    30    29    2
    65    41    36   am
    66    59    60    1
    67   107   106   ar
    68   107   108    1
    69    27    28    1
    70    29    28    1
    71    29    34   am
    72    36    35    1
    73    36    37    2
    74    35    34    1
    75    35    38    1
    76    31    28    1
    77    31    33    1
    78    31    32    1
    79    60    61   ar
    80    60    62   ar
    81    39    38    1
    82    38    40    1
    83    10    11   ar
    84    10     8   ar
    85    11     9   ar
    86     8     6   ar
    87     9     7   ar
    88     6     7   ar
    89     6     5    1
    90     5     2    1
    91    15    14    2
    92    25    24    1
    93    21    22    1
    94    21    24    1
    95    21    20    1
    96    26    24    1
    97     2     3    1
    98     2     1    1
    99    14    20   am
   100    14    13    1
   101    22    23    2
   102    12     3   am
   103    12    13    1
   104     3     4    2
   105    16    13    1
   106    16    17    1
   107    19    17   am
   108    17    18    2
