@<TRIPOS>MOLECULE
tmp/1re5C01.pdb
 83 79 0 0 0
SMALL
GASTEIGER

@<TRIPOS>ATOM
      1  N          7.8350   59.4210  -19.5730 N.3    74  ASN74      -0.1240
      2  CA         9.0470   60.2220  -19.5280 C.3    74  ASN74       0.1653
      3  C          9.3180   60.7410  -20.9360 C.2    74  ASN74       0.2266
      4  O          8.5760   60.4330  -21.8630 O.2    74  ASN74      -0.2867
      5  CB        10.2390   59.4120  -19.0030 C.3    74  ASN74       0.1155
      6  CG        10.6900   58.3290  -19.9600 C.2    74  ASN74       0.2627
      7  OD1       10.7330   58.5310  -21.1670 O.2    74  ASN74      -0.2716
      8  ND2       11.0610   57.1800  -19.4180 N.am   74  ASN74      -0.0877
      9  N         12.2340   57.8690  -23.7210 N.3    77  ILE77      -0.1245
     10  CA        11.8170   56.8220  -24.6450 C.3    77  ILE77       0.1561
     11  C         11.1690   57.3100  -25.9440 C.2    77  ILE77       0.2260
     12  O         11.4480   56.7590  -27.0050 O.2    77  ILE77      -0.2867
     13  CB        10.9140   55.7080  -23.9830 C.3    77  ILE77       0.0252
     14  CG1        9.4400   56.0410  -24.1320 C.3    77  ILE77       0.0019
     15  CG2       11.2880   55.5050  -22.5280 C.3    77  ILE77       0.0019
     16  CD1        8.5550   54.8920  -23.7700 C.3    77  ILE77       0.0001
     17  N         21.3770   54.6300  -28.0060 N.3    99  HIS99      -0.1241
     18  CA        20.9640   54.4640  -26.6120 C.3    99  HIS99       0.1621
     19  C         21.3450   53.0940  -26.0450 C.2    99  HIS99       0.2264
     20  O         20.6570   52.5630  -25.1750 O.2    99  HIS99      -0.2867
     21  CB        19.4490   54.6820  -26.5150 C.3    99  HIS99       0.0745
     22  CG        18.9640   54.9950  -25.1380 C.ar   99  HIS99       0.0817
     23  ND1       18.3200   54.0700  -24.3490 N.ar   99  HIS99      -0.2268
     24  CD2       19.0160   56.1350  -24.4150 C.ar   99  HIS99       0.1154
     25  CE1       17.9940   54.6270  -23.1980 C.ar   99  HIS99       0.1986
     26  NE2       18.4070   55.8810  -23.2130 N.ar   99  HIS99      -0.2212
     27  N         21.9710   52.2140  -21.9170 N.3   102  ALA102     -0.1231
     28  CA        21.5480   53.3050  -21.0540 C.3   102  ALA102      0.1694
     29  C         20.0560   53.2620  -20.7860 C.2   102  ALA102      0.2593
     30  O         19.2860   52.7170  -21.5750 O.2   102  ALA102     -0.2718
     31  CB        21.9380   54.6640  -21.6820 C.3   102  ALA102      0.0304
     32  N         19.6560   53.8420  -19.6620 N.am  103  THR103     -0.1939
     33  CA        18.2550   53.8980  -19.2850 C.3   103  THR103      0.2028
     34  C         17.7440   55.3300  -19.5240 C.2   103  THR103      0.2643
     35  O         18.5400   56.2630  -19.6220 O.2   103  THR103     -0.2714
     36  CB        18.0920   53.4720  -17.7990 C.3   103  THR103      0.1808
     37  OG1       16.7040   53.3960  -17.4710 O.3   103  THR103     -0.2208
     38  CG2       18.7880   54.4560  -16.8650 C.3   103  THR103      0.0379
     39  N         16.4290   55.5070  -19.6370 N.am  104  SER104     -0.1935
     40  CA        15.8510   56.8370  -19.8710 C.3   104  SER104      0.2055
     41  C         16.4360   57.9360  -18.9790 C.2   104  SER104      0.2642
     42  O         16.8710   58.9780  -19.4730 O.2   104  SER104     -0.2714
     43  CB        14.3330   56.8270  -19.6590 C.3   104  SER104      0.2130
     44  OG        13.6550   56.0660  -20.6300 O.3   104  SER104     -0.2179
     45  N         16.4370   57.7040  -17.6680 N.am  105  GLN105     -0.1976
     46  CA        16.9450   58.6890  -16.7190 C.3   105  GLN105      0.1601
     47  C         18.3950   59.1100  -16.9640 C.2   105  GLN105      0.2287
     48  O         18.7830   60.2290  -16.6350 O.2   105  GLN105     -0.2864
     49  CB        16.7990   58.1810  -15.2860 C.3   105  GLN105      0.0394
     50  CG        17.0070   59.2840  -14.2760 C.3   105  GLN105      0.0908
     51  CD        16.6730   58.8820  -12.8560 C.2   105  GLN105      0.2608
     52  OE1       16.6800   59.7190  -11.9580 O.2   105  GLN105     -0.2717
     53  NE2       16.3910   57.6060  -12.6410 N.am  105  GLN105     -0.0878
     54  N         19.4250   50.6960  -16.5210 N.3   193  ALA193     -0.1245
     55  CA        18.2050   50.1840  -15.8950 C.3   193  ALA193      0.1562
     56  C         18.0920   50.2690  -14.3810 C.2   193  ALA193      0.2260
     57  O         17.1130   50.8070  -13.8650 O.2   193  ALA193     -0.2867
     58  CB        17.9720   48.7470  -16.3270 C.3   193  ALA193      0.0290
     59  N         14.4600   54.0430   -8.7190 N.3   305  ARG305     -0.1245
     60  CA        13.8550   55.0810   -9.5420 C.3   305  ARG305      0.1563
     61  C         12.4690   55.2940   -8.9660 C.2   305  ARG305      0.2260
     62  O         11.6880   54.3540   -8.8040 O.2   305  ARG305     -0.2867
     63  CB        13.7710   54.6670  -11.0080 C.3   305  ARG305      0.0307
     64  CG        13.6670   55.8560  -11.9620 C.3   305  ARG305      0.0489
     65  CD        13.5770   55.4360  -13.4350 C.3   305  ARG305      0.2205
     66  NE        14.4270   54.2870  -13.7590 N.pl3 305  ARG305     -0.0865
     67  CZ        15.7560   54.2620  -13.7200 C.cat 305  ARG305      0.5346
     68  NH1       16.4460   55.3320  -13.3800 N.pl3 305  ARG305      0.1354
     69  NH2       16.3930   53.1380  -13.9840 N.pl3 305  ARG305      0.1354
     70  N         10.1060   62.1350   -8.6990 N.3   310  TRP310     -0.1241
     71  CA        11.0800   62.4750   -9.7360 C.3   310  TRP310      0.1605
     72  C         10.4140   63.3640  -10.7930 C.2   310  TRP310      0.2264
     73  O         11.0210   64.3180  -11.2910 O.2   310  TRP310     -0.2867
     74  CB        11.6400   61.1920  -10.3610 C.3   310  TRP310      0.0550
     75  CG        12.5390   61.3980  -11.5500 C.ar  310  TRP310      0.0003
     76  CD1       13.5140   62.3480  -11.6960 C.ar  310  TRP310      0.0946
     77  CD2       12.5580   60.6130  -12.7590 C.ar  310  TRP310      0.0152
     78  NE1       14.1330   62.2050  -12.9180 N.ar  310  TRP310     -0.2442
     79  CE2       13.5680   61.1510  -13.5910 C.ar  310  TRP310      0.0810
     80  CE3       11.8130   59.5090  -13.2200 C.ar  310  TRP310      0.0012
     81  CZ2       13.8590   60.6200  -14.8700 C.ar  310  TRP310      0.0191
     82  CZ3       12.1020   58.9800  -14.4930 C.ar  310  TRP310      0.0001
     83  CH2       13.1170   59.5410  -15.2990 C.ar  310  TRP310      0.0015
@<TRIPOS>BOND
     1    17    18    1
     2    12    11    2
     3    18    21    1
     4    18    19    1
     5    21    22    1
     6    19    20    2
     7    11    10    1
     8    22    24   ar
     9    22    23   ar
    10    10    13    1
    11    10     9    1
    12    24    26   ar
    13    23    25   ar
    14    14    13    1
    15    14    16    1
    16    13    15    1
    17    26    25   ar
    18    27    28    1
    19     4     3    2
    20    31    28    1
    21    30    29    2
    22     7     6    2
    23    28    29    1
    24     3     2    1
    25    29    32   am
    26    44    43    1
    27     6     8   am
    28     6     5    1
    29    40    43    1
    30    40    39    1
    31    40    41    1
    32    32    33    1
    33    39    34   am
    34    35    34    2
    35     1     2    1
    36     2     5    1
    37    34    33    1
    38    42    41    2
    39    33    36    1
    40    41    45   am
    41    36    37    1
    42    36    38    1
    43    45    46    1
    44    47    46    1
    45    47    48    2
    46    46    49    1
    47    54    55    1
    48    58    55    1
    49    55    56    1
    50    83    81   ar
    51    83    82   ar
    52    49    50    1
    53    81    79   ar
    54    82    80   ar
    55    56    57    2
    56    50    51    1
    57    69    67    1
    58    66    67    2
    59    66    65    1
    60    67    68    1
    61    79    78   ar
    62    79    77   ar
    63    65    64    1
    64    80    77   ar
    65    78    76   ar
    66    51    53   am
    67    51    52    2
    68    77    75   ar
    69    64    63    1
    70    76    75   ar
    71    75    74    1
    72    73    72    2
    73    63    60    1
    74    72    71    1
    75    74    71    1
    76    71    70    1
    77    60    61    1
    78    60    59    1
    79    61    62    2
