@<TRIPOS>MOLECULE
tmp/1redB00.pdb
 155 150 0 0 0
SMALL
GASTEIGER

@<TRIPOS>ATOM
      1  N         83.4280   33.0360   11.9800 N.3    15  SER15      -0.1217
      2  CA        83.9060   31.6790   11.8630 C.3    15  SER15       0.1889
      3  C         83.9840   31.3420   10.3860 C.2    15  SER15       0.2288
      4  O         83.0290   31.5630    9.6390 O.2    15  SER15      -0.2866
      5  CB        82.9590   30.7150   12.5750 C.3    15  SER15       0.2089
      6  OG        83.4200   29.3810   12.4520 O.3    15  SER15      -0.2183
      7  N         85.4250   28.2010    7.8220 N.3    17  TRP17      -0.1241
      8  CA        85.8940   26.8230    7.7280 C.3    17  TRP17       0.1605
      9  C         85.7570   26.3110    6.2990 C.2    17  TRP17       0.2264
     10  O         84.8260   26.6780    5.5880 O.2    17  TRP17      -0.2867
     11  CB        85.0630   25.9320    8.6690 C.3    17  TRP17       0.0550
     12  CG        85.3320   24.4550    8.5300 C.ar   17  TRP17       0.0003
     13  CD1       86.1980   23.7080    9.2760 C.ar   17  TRP17       0.0946
     14  CD2       84.7620   23.5580    7.5600 C.ar   17  TRP17       0.0152
     15  NE1       86.2110   22.4070    8.8260 N.ar   17  TRP17      -0.2442
     16  CE2       85.3410   22.2880    7.7740 C.ar   17  TRP17       0.0810
     17  CE3       83.8220   23.7070    6.5270 C.ar   17  TRP17       0.0012
     18  CZ2       85.0140   21.1710    6.9920 C.ar   17  TRP17       0.0191
     19  CZ3       83.4960   22.5960    5.7510 C.ar   17  TRP17       0.0001
     20  CH2       84.0920   21.3460    5.9880 C.ar   17  TRP17       0.0015
     21  N         83.7850   22.1260   -0.0790 N.3    43  ASN43      -0.1240
     22  CA        82.7750   22.4150    0.9360 C.3    43  ASN43       0.1653
     23  C         83.3410   23.4630    1.9100 C.2    43  ASN43       0.2266
     24  O         84.4570   23.3060    2.4260 O.2    43  ASN43      -0.2867
     25  CB        82.3790   21.1290    1.6760 C.3    43  ASN43       0.1155
     26  CG        81.2450   21.3420    2.6710 C.2    43  ASN43       0.2627
     27  OD1       81.1830   20.6780    3.7060 O.2    43  ASN43      -0.2716
     28  ND2       80.3360   22.2580    2.3540 N.am   43  ASN43      -0.0877
     29  N         82.1170   26.9570    4.8250 N.3    45  VAL45      -0.1245
     30  CA        81.0910   27.6710    5.5690 C.3    45  VAL45       0.1561
     31  C         81.7270   28.8590    6.2990 C.2    45  VAL45       0.2260
     32  O         82.7100   28.7040    7.0160 O.2    45  VAL45      -0.2867
     33  CB        80.3350   26.7290    6.5530 C.3    45  VAL45       0.0252
     34  CG1       81.2990   26.0430    7.4990 C.3    45  VAL45       0.0019
     35  CG2       79.2830   27.5100    7.3290 C.3    45  VAL45       0.0019
     36  N         73.1350   29.9460   11.1020 N.3    76  TYR76      -0.1241
     37  CA        73.8080   28.6970   11.4370 C.3    76  TYR76       0.1605
     38  C         74.4120   28.7160   12.8440 C.2    76  TYR76       0.2264
     39  O         74.8770   29.7500   13.3180 O.2    76  TYR76      -0.2867
     40  CB        74.8820   28.4780   10.3590 C.3    76  TYR76       0.0534
     41  CG        75.8930   27.3860   10.5990 C.ar   76  TYR76      -0.0201
     42  CD1       75.5340   26.0450   10.5270 C.ar   76  TYR76      -0.0009
     43  CD2       77.2310   27.6990   10.8410 C.ar   76  TYR76      -0.0009
     44  CE1       76.4850   25.0400   10.6880 C.ar   76  TYR76       0.0417
     45  CE2       78.1870   26.7030   10.9990 C.ar   76  TYR76       0.0417
     46  CZ        77.8080   25.3780   10.9210 C.ar   76  TYR76       0.1957
     47  OH        78.7560   24.3920   11.0580 O.3    76  TYR76      -0.2866
     48  N         75.4870   26.1120   16.7110 N.3    78  TRP78      -0.1241
     49  CA        75.6120   24.8720   17.4590 C.3    78  TRP78       0.1605
     50  C         75.1450   24.9900   18.8980 C.2    78  TRP78       0.2264
     51  O         75.0680   26.0820   19.4690 O.2    78  TRP78      -0.2867
     52  CB        77.0700   24.4120   17.4870 C.3    78  TRP78       0.0550
     53  CG        77.6330   24.0300   16.1640 C.ar   78  TRP78       0.0003
     54  CD1       78.1200   24.8730   15.2050 C.ar   78  TRP78       0.0946
     55  CD2       77.8220   22.7010   15.6660 C.ar   78  TRP78       0.0152
     56  NE1       78.6070   24.1520   14.1460 N.ar   78  TRP78      -0.2442
     57  CE2       78.4380   22.8160   14.4000 C.ar   78  TRP78       0.0810
     58  CE3       77.5350   21.4260   16.1680 C.ar   78  TRP78       0.0012
     59  CZ2       78.7740   21.6990   13.6250 C.ar   78  TRP78       0.0191
     60  CZ3       77.8690   20.3120   15.3960 C.ar   78  TRP78       0.0001
     61  CH2       78.4820   20.4600   14.1380 C.ar   78  TRP78       0.0015
     62  N         73.4580   20.6790   15.6840 N.3    85  GLU85      -0.1245
     63  CA        73.8520   21.5970   14.6280 C.3    85  GLU85       0.1567
     64  C         72.5320   22.0260   14.0050 C.2    85  GLU85       0.2260
     65  O         71.6990   21.1800   13.6750 O.2    85  GLU85      -0.2867
     66  CB        74.7130   20.8890   13.5920 C.3    85  GLU85       0.0388
     67  CG        75.1980   21.7980   12.4860 C.3    85  GLU85       0.1160
     68  CD        75.7510   21.0240   11.3210 C.2    85  GLU85       0.3649
     69  OE1       75.2440   19.9210   11.0340 O.co2  85  GLU85      -0.2457
     70  OE2       76.8170   21.6460   10.6530 O.co2  85  GLU85      -0.2457
     71  N         70.2200   24.8330   11.3170 N.3    87  TYR87      -0.1241
     72  CA        70.1890   25.7050   10.1530 C.3    87  TYR87       0.1605
     73  C         68.8070   26.3130    9.9730 C.2    87  TYR87       0.2264
     74  O         67.7980   25.6130   10.0430 O.2    87  TYR87      -0.2867
     75  CB        70.4460   24.9040    8.8750 C.3    87  TYR87       0.0534
     76  CG        71.8550   24.4390    8.6180 C.ar   87  TYR87      -0.0201
     77  CD1       72.3340   23.2480    9.1690 C.ar   87  TYR87      -0.0009
     78  CD2       72.6740   25.1330    7.7280 C.ar   87  TYR87      -0.0009
     79  CE1       73.5880   22.7550    8.8300 C.ar   87  TYR87       0.0417
     80  CE2       73.9270   24.6500    7.3850 C.ar   87  TYR87       0.0417
     81  CZ        74.3740   23.4610    7.9350 C.ar   87  TYR87       0.1957
     82  OH        75.5970   22.9720    7.5600 O.3    87  TYR87      -0.2866
     83  N         73.7670   12.8960   12.0450 N.3   121  ARG121     -0.1245
     84  CA        75.0720   12.8800   11.3970 C.3   121  ARG121      0.1563
     85  C         75.9490   11.9720   12.2540 C.2   121  ARG121      0.2260
     86  O         76.1830   12.2530   13.4290 O.2   121  ARG121     -0.2867
     87  CB        75.6490   14.2950   11.3510 C.3   121  ARG121      0.0307
     88  CG        74.6870   15.3210   10.7710 C.3   121  ARG121      0.0489
     89  CD        75.2410   15.9630    9.5110 C.3   121  ARG121      0.2205
     90  NE        75.3720   15.0070    8.4160 N.pl3 121  ARG121     -0.0865
     91  CZ        76.4280   14.9300    7.6100 C.cat 121  ARG121      0.5346
     92  NH1       77.4620   15.7510    7.7710 N.pl3 121  ARG121      0.1354
     93  NH2       76.4550   14.0240    6.6420 N.pl3 121  ARG121      0.1354
     94  N         82.4900   15.7890   11.4110 N.3   125  PRO125     -0.2102
     95  CA        83.1980   16.8940   12.0670 C.3   125  PRO125      0.1504
     96  C         82.1860   17.7710   12.8100 C.2   125  PRO125      0.2576
     97  O         81.0490   17.9410   12.3600 O.2   125  PRO125     -0.2718
     98  CB        83.8100   17.6540   10.8870 C.3   125  PRO125      0.0282
     99  CG        84.0490   16.5820    9.8860 C.3   125  PRO125      0.0208
    100  CD        82.7810   15.7700    9.9660 C.3   125  PRO125      0.0893
    101  N         82.6000   18.3080   13.9490 N.am  126  SER126     -0.1938
    102  CA        81.7410   19.1700   14.7520 C.3   126  SER126      0.2055
    103  C         82.6200   20.1190   15.5640 C.2   126  SER126      0.2642
    104  O         83.8440   20.1120   15.4170 O.2   126  SER126     -0.2714
    105  CB        80.8550   18.3300   15.6800 C.3   126  SER126      0.2130
    106  OG        81.5930   17.8020   16.7630 O.3   126  SER126     -0.2179
    107  N         82.0040   20.9400   16.4100 N.am  127  ILE127     -0.1977
    108  CA        82.7640   21.8830   17.2250 C.3   127  ILE127      0.1596
    109  C         83.5650   21.2210   18.3490 C.2   127  ILE127      0.2287
    110  O         84.3440   21.8860   19.0300 O.2   127  ILE127     -0.2864
    111  CB        81.8700   22.9980   17.8130 C.3   127  ILE127      0.0276
    112  CG1       80.6480   22.3960   18.5040 C.3   127  ILE127      0.0022
    113  CG2       81.4730   23.9850   16.7220 C.3   127  ILE127      0.0022
    114  CD1       79.9090   23.3750   19.3550 C.3   127  ILE127      0.0001
    115  N         75.7270   13.5860   16.1200 N.3   133  PHE133     -0.1241
    116  CA        74.7620   14.5730   16.5770 C.3   133  PHE133      0.1605
    117  C         73.5870   14.7140   15.6280 C.2   133  PHE133      0.2264
    118  O         73.6250   14.2280   14.5000 O.2   133  PHE133     -0.2867
    119  CB        75.4620   15.9350   16.6830 C.3   133  PHE133      0.0534
    120  CG        76.1880   16.3490   15.4170 C.ar  133  PHE133     -0.0203
    121  CD1       77.4900   15.9150   15.1690 C.ar  133  PHE133     -0.0042
    122  CD2       75.5650   17.1570   14.4710 C.ar  133  PHE133     -0.0042
    123  CE1       78.1550   16.2760   14.0030 C.ar  133  PHE133     -0.0003
    124  CE2       76.2220   17.5250   13.3020 C.ar  133  PHE133     -0.0003
    125  CZ        77.5200   17.0830   13.0650 C.ar  133  PHE133     -0.0000
    126  N         70.9560   17.1300   13.4530 N.3   135  GLN135     -0.1245
    127  CA        71.0100   18.3330   12.6390 C.3   135  GLN135      0.1566
    128  C         69.5610   18.7800   12.4120 C.2   135  GLN135      0.2260
    129  O         68.7590   18.0260   11.8640 O.2   135  GLN135     -0.2867
    130  CB        71.6860   17.9580   11.3160 C.3   135  GLN135      0.0367
    131  CG        72.0080   19.0690   10.3550 C.3   135  GLN135      0.0905
    132  CD        72.7040   18.5270    9.1090 C.2   135  GLN135      0.2608
    133  OE1       72.1850   17.6370    8.4350 O.2   135  GLN135     -0.2717
    134  NE2       73.8820   19.0570    8.8040 N.am  135  GLN135     -0.0878
    135  N         78.3920   29.1660   19.1130 N.3   170  TYR170     -0.1241
    136  CA        78.2250   30.2890   18.1960 C.3   170  TYR170      0.1605
    137  C         76.9250   30.2880   17.3920 C.2   170  TYR170      0.2264
    138  O         76.2520   29.2670   17.2490 O.2   170  TYR170     -0.2867
    139  CB        79.4490   30.4920   17.2980 C.3   170  TYR170      0.0534
    140  CG        79.7100   29.4280   16.2530 C.ar  170  TYR170     -0.0201
    141  CD1       79.0000   29.4110   15.0510 C.ar  170  TYR170     -0.0009
    142  CD2       80.7130   28.4760   16.4400 C.ar  170  TYR170     -0.0009
    143  CE1       79.2860   28.4750   14.0590 C.ar  170  TYR170      0.0417
    144  CE2       81.0060   27.5350   15.4570 C.ar  170  TYR170      0.0417
    145  CZ        80.2910   27.5410   14.2730 C.ar  170  TYR170      0.1957
    146  OH        80.5720   26.6050   13.3090 O.3   170  TYR170     -0.2866
    147  N         77.2320   28.9110    2.9320 N.3   176  GLU176     -0.1245
    148  CA        77.8590   27.6070    2.8010 C.3   176  GLU176      0.1567
    149  C         77.8450   27.2540    1.3320 C.2   176  GLU176      0.2260
    150  O         76.9340   27.6350    0.6060 O.2   176  GLU176     -0.2867
    151  CB        77.1100   26.5410    3.6030 C.3   176  GLU176      0.0388
    152  CG        77.7420   25.1610    3.4820 C.3   176  GLU176      0.1160
    153  CD        77.2320   24.1620    4.5040 C.2   176  GLU176      0.3649
    154  OE1       76.6990   24.5760    5.5540 O.co2 176  GLU176     -0.2457
    155  OE2       77.3880   22.9480    4.2590 O.co2 176  GLU176     -0.2457
@<TRIPOS>BOND
     1    21    22    1
     2   150   149    2
     3    22    25    1
     4    22    23    1
     5   149   148    1
     6    25    26    1
     7    23    24    2
     8    28    26   am
     9    26    27    2
    10   148   147    1
    11   148   151    1
    12   152   151    1
    13   152   153    1
    14   155   153   ar
    15   153   154   ar
    16    29    30    1
    17    30    31    1
    18    30    33    1
    19    10     9    2
    20    19    20   ar
    21    19    17   ar
    22    20    18   ar
    23     9     8    1
    24    31    32    2
    25    17    14   ar
    26    33    35    1
    27    33    34    1
    28    93    91    1
    29    18    16   ar
    30    80    78   ar
    31    80    81   ar
    32    82    81    1
    33    14    16   ar
    34    14    12   ar
    35    91    92    1
    36    91    90    2
    37    78    76   ar
    38     8     7    1
    39     8    11    1
    40    16    15   ar
    41    81    79   ar
    42    90    89    1
    43   133   132    2
    44    12    11    1
    45    12    13   ar
    46    76    75    1
    47    76    77   ar
    48   134   132   am
    49    15    13   ar
    50    79    77   ar
    51    75    72    1
    52   132   131    1
    53    89    88    1
    54     4     3    2
    55    99   100    1
    56    99    98    1
    57   100    94    1
    58    73    74    2
    59    73    72    1
    60    72    71    1
    61   131   130    1
    62    40    41    1
    63    40    37    1
    64     3     2    1
    65    42    41   ar
    66    42    44   ar
    67    41    43   ar
    68    70    68   ar
    69    44    46   ar
    70    88    87    1
    71    43    45   ar
    72    98    95    1
    73    46    45   ar
    74    46    47    1
    75    69    68   ar
    76    36    37    1
    77   130   127    1
    78    68    67    1
    79    87    84    1
    80    84    83    1
    81    84    85    1
    82    94    95    1
    83    37    38    1
    84     2     1    1
    85     2     5    1
    86   129   128    2
    87    95    96    1
    88    85    86    2
    89    97    96    2
    90   128   127    1
    91     6     5    1
    92    67    66    1
    93   127   126    1
    94    96   101   am
    95    38    39    2
    96   125   124   ar
    97   125   123   ar
    98   124   122   ar
    99   146   145    1
   100    66    63    1
   101    59    61   ar
   102    59    57   ar
   103    65    64    2
   104   101   102    1
   105   123   121   ar
   106    64    63    1
   107   143   145   ar
   108   143   141   ar
   109    61    60   ar
   110    56    57   ar
   111    56    54   ar
   112   145   144   ar
   113    57    55   ar
   114   122   120   ar
   115   118   117    2
   116    63    62    1
   117   102   103    1
   118   102   105    1
   119   141   140   ar
   120   121   120   ar
   121    54    53   ar
   122    60    58   ar
   123   120   119    1
   124   104   103    2
   125   144   142   ar
   126   103   107   am
   127   117   116    1
   128    55    53   ar
   129    55    58   ar
   130   105   106    1
   131   115   116    1
   132    53    52    1
   133   140   142   ar
   134   140   139    1
   135   107   108    1
   136   116   119    1
   137    48    49    1
   138   113   111    1
   139   108   111    1
   140   108   109    1
   141   138   137    2
   142   139   136    1
   143   137   136    1
   144    49    52    1
   145    49    50    1
   146   111   112    1
   147   136   135    1
   148   109   110    2
   149   112   114    1
   150    50    51    2
