@<TRIPOS>MOLECULE
tmp/1reeB00.pdb
 144 139 0 0 0
SMALL
GASTEIGER

@<TRIPOS>ATOM
      1  N         83.2060   33.0000   11.9670 N.3    15  SER15      -0.1217
      2  CA        83.7000   31.6430   11.8510 C.3    15  SER15       0.1889
      3  C         83.7690   31.3180   10.3710 C.2    15  SER15       0.2288
      4  O         82.8060   31.5410    9.6400 O.2    15  SER15      -0.2866
      5  CB        82.7710   30.6560   12.5590 C.3    15  SER15       0.2089
      6  OG        83.2670   29.3340   12.4200 O.3    15  SER15      -0.2183
      7  N         85.2000   28.2200    7.7450 N.3    17  TRP17      -0.1241
      8  CA        85.6800   26.8470    7.6370 C.3    17  TRP17       0.1605
      9  C         85.5550   26.3070    6.2140 C.2    17  TRP17       0.2264
     10  O         84.6060   26.6310    5.5000 O.2    17  TRP17      -0.2867
     11  CB        84.8730   25.9500    8.5880 C.3    17  TRP17       0.0550
     12  CG        85.1250   24.4750    8.4220 C.ar   17  TRP17       0.0003
     13  CD1       86.0300   23.7130    9.1090 C.ar   17  TRP17       0.0946
     14  CD2       84.4740   23.5870    7.4980 C.ar   17  TRP17       0.0152
     15  NE1       85.9870   22.4110    8.6660 N.ar   17  TRP17      -0.2442
     16  CE2       85.0430   22.3050    7.6790 C.ar   17  TRP17       0.0810
     17  CE3       83.4690   23.7530    6.5320 C.ar   17  TRP17       0.0012
     18  CZ2       84.6390   21.1930    6.9290 C.ar   17  TRP17       0.0191
     19  CZ3       83.0700   22.6470    5.7870 C.ar   17  TRP17       0.0001
     20  CH2       83.6560   21.3840    5.9910 C.ar   17  TRP17       0.0015
     21  N         83.7580   22.2760   -0.2320 N.3    43  ASN43      -0.1240
     22  CA        82.7320   22.4750    0.7850 C.3    43  ASN43       0.1653
     23  C         83.2270   23.5140    1.8000 C.2    43  ASN43       0.2266
     24  O         84.3040   23.3580    2.3770 O.2    43  ASN43      -0.2867
     25  CB        82.4300   21.1350    1.4760 C.3    43  ASN43       0.1155
     26  CG        81.2700   21.2160    2.4520 C.2    43  ASN43       0.2627
     27  OD1       81.3280   20.6500    3.5410 O.2    43  ASN43      -0.2716
     28  ND2       80.2000   21.9010    2.0560 N.am   43  ASN43      -0.0877
     29  N         81.8800   27.0100    4.6980 N.3    45  VAL45      -0.1245
     30  CA        80.8530   27.7310    5.4410 C.3    45  VAL45       0.1561
     31  C         81.5030   28.8830    6.2180 C.2    45  VAL45       0.2260
     32  O         82.5030   28.6930    6.9190 O.2    45  VAL45      -0.2867
     33  CB        80.0370   26.8130    6.3910 C.3    45  VAL45       0.0252
     34  CG1       80.9330   26.1750    7.4370 C.3    45  VAL45       0.0019
     35  CG2       78.9220   27.6140    7.0560 C.3    45  VAL45       0.0019
     36  N         72.9540   29.9860   11.1320 N.3    76  TYR76      -0.1241
     37  CA        73.6350   28.7340   11.4410 C.3    76  TYR76       0.1605
     38  C         74.2480   28.7160   12.8480 C.2    76  TYR76       0.2264
     39  O         74.8340   29.7010   13.2860 O.2    76  TYR76      -0.2867
     40  CB        74.7160   28.5390   10.3680 C.3    76  TYR76       0.0534
     41  CG        75.6820   27.4030   10.5870 C.ar   76  TYR76      -0.0201
     42  CD1       75.2530   26.0810   10.5890 C.ar   76  TYR76      -0.0009
     43  CD2       77.0380   27.6550   10.7770 C.ar   76  TYR76      -0.0009
     44  CE1       76.1520   25.0390   10.7750 C.ar   76  TYR76       0.0417
     45  CE2       77.9420   26.6240   10.9670 C.ar   76  TYR76       0.0417
     46  CZ        77.4940   25.3200   10.9650 C.ar   76  TYR76       0.1957
     47  OH        78.3910   24.3010   11.1600 O.3    76  TYR76      -0.2866
     48  N         75.2620   26.1300   16.7460 N.3    78  TRP78      -0.1241
     49  CA        75.4140   24.8930   17.4970 C.3    78  TRP78       0.1605
     50  C         74.9270   25.0000   18.9330 C.2    78  TRP78       0.2264
     51  O         74.8520   26.0890   19.5130 O.2    78  TRP78      -0.2867
     52  CB        76.8880   24.4940   17.5540 C.3    78  TRP78       0.0550
     53  CG        77.4680   24.0430   16.2610 C.ar   78  TRP78       0.0003
     54  CD1       77.9640   24.8320   15.2680 C.ar   78  TRP78       0.0946
     55  CD2       77.6590   22.6890   15.8370 C.ar   78  TRP78       0.0152
     56  NE1       78.4590   24.0540   14.2530 N.ar   78  TRP78      -0.2442
     57  CE2       78.2830   22.7350   14.5740 C.ar   78  TRP78       0.0810
     58  CE3       77.3590   21.4410   16.4020 C.ar   78  TRP78       0.0012
     59  CZ2       78.6190   21.5780   13.8620 C.ar   78  TRP78       0.0191
     60  CZ3       77.6930   20.2890   15.6940 C.ar   78  TRP78       0.0001
     61  CH2       78.3150   20.3690   14.4370 C.ar   78  TRP78       0.0015
     62  N         73.4420   20.7220   15.6290 N.3    85  GLU85      -0.1245
     63  CA        73.8580   21.6730   14.6050 C.3    85  GLU85       0.1567
     64  C         72.5230   22.0540   13.9860 C.2    85  GLU85       0.2260
     65  O         71.7400   21.1760   13.6230 O.2    85  GLU85      -0.2867
     66  CB        74.7410   20.9960   13.5600 C.3    85  GLU85       0.0388
     67  CG        75.2380   21.9400   12.4710 C.3    85  GLU85       0.1160
     68  CD        75.9970   21.2170   11.3710 C.2    85  GLU85       0.3649
     69  OE1       75.6730   20.0460   11.0990 O.co2  85  GLU85      -0.2457
     70  OE2       76.9170   21.8130   10.7740 O.co2  85  GLU85      -0.2457
     71  N         70.0320   24.8370   11.3870 N.3    87  TYR87      -0.1241
     72  CA        69.9650   25.7630   10.2630 C.3    87  TYR87       0.1605
     73  C         68.5610   26.3470   10.0760 C.2    87  TYR87       0.2264
     74  O         67.5570   25.6340   10.1660 O.2    87  TYR87      -0.2867
     75  CB        70.3090   25.0620    8.9410 C.3    87  TYR87       0.0534
     76  CG        71.6360   24.3580    8.8560 C.ar   87  TYR87      -0.0201
     77  CD1       71.7670   23.0300    9.2620 C.ar   87  TYR87      -0.0009
     78  CD2       72.7380   24.9810    8.2700 C.ar   87  TYR87      -0.0009
     79  CE1       72.9600   22.3360    9.0760 C.ar   87  TYR87       0.0417
     80  CE2       73.9350   24.2950    8.0800 C.ar   87  TYR87       0.0417
     81  CZ        74.0330   22.9720    8.4810 C.ar   87  TYR87       0.1957
     82  OH        75.1900   22.2750    8.2490 O.3    87  TYR87      -0.2866
     83  N         73.8690   12.9940   11.9770 N.3   121  ARG121     -0.1245
     84  CA        75.2030   12.9970   11.4010 C.3   121  ARG121      0.1563
     85  C         76.0020   12.0410   12.2750 C.2   121  ARG121      0.2260
     86  O         76.1220   12.2560   13.4780 O.2   121  ARG121     -0.2867
     87  CB        75.7920   14.4060   11.4750 C.3   121  ARG121      0.0307
     88  CG        74.9560   15.4360   10.7470 C.3   121  ARG121      0.0489
     89  CD        75.1390   15.3200    9.2490 C.3   121  ARG121      0.2205
     90  NE        76.4600   15.7970    8.8540 N.pl3 121  ARG121     -0.0865
     91  CZ        77.1690   15.3080    7.8420 C.cat 121  ARG121      0.5346
     92  NH1       76.6980   14.3000    7.1150 N.pl3 121  ARG121      0.1354
     93  NH2       78.3630   15.8180    7.5690 N.pl3 121  ARG121      0.1354
     94  N         82.4060   15.8010   11.4800 N.3   125  PRO125     -0.2102
     95  CA        83.0980   16.9220   12.1240 C.3   125  PRO125      0.1504
     96  C         82.0820   17.7800   12.8770 C.2   125  PRO125      0.2576
     97  O         80.9430   17.9390   12.4250 O.2   125  PRO125     -0.2718
     98  CB        83.6790   17.6840   10.9360 C.3   125  PRO125      0.0282
     99  CG        83.9380   16.6010    9.9470 C.3   125  PRO125      0.0208
    100  CD        82.6840   15.7800   10.0330 C.3   125  PRO125      0.0893
    101  N         82.4940   18.3200   14.0190 N.am  126  SER126     -0.1938
    102  CA        81.6290   19.1610   14.8450 C.3   126  SER126      0.2055
    103  C         82.4900   20.1470   15.6280 C.2   126  SER126      0.2642
    104  O         83.7070   20.1880   15.4500 O.2   126  SER126     -0.2714
    105  CB        80.8080   18.2980   15.8170 C.3   126  SER126      0.2130
    106  OG        81.5960   17.8600   16.9080 O.3   126  SER126     -0.2179
    107  N         81.8620   20.9470   16.4850 N.am  127  ILE127     -0.1977
    108  CA        82.5980   21.9180   17.2900 C.3   127  ILE127      0.1596
    109  C         83.3880   21.2640   18.4300 C.2   127  ILE127      0.2287
    110  O         84.1430   21.9400   19.1300 O.2   127  ILE127     -0.2864
    111  CB        81.6660   23.0030   17.8770 C.3   127  ILE127      0.0276
    112  CG1       80.4750   22.3520   18.5810 C.3   127  ILE127      0.0022
    113  CG2       81.2130   23.9610   16.7800 C.3   127  ILE127      0.0022
    114  CD1       79.6610   23.3160   19.4010 C.3   127  ILE127      0.0001
    115  N         70.8850   17.1870   13.3880 N.3   135  GLN135     -0.1245
    116  CA        70.8570   18.4480   12.6650 C.3   135  GLN135      0.1566
    117  C         69.3980   18.8510   12.5770 C.2   135  GLN135      0.2260
    118  O         68.5630   18.0510   12.1570 O.2   135  GLN135     -0.2867
    119  CB        71.3270   18.2750   11.2220 C.3   135  GLN135      0.0367
    120  CG        72.8040   18.2020   10.9600 C.3   135  GLN135      0.0905
    121  CD        73.0800   18.1670    9.4620 C.2   135  GLN135      0.2608
    122  OE1       72.2770   17.6460    8.6870 O.2   135  GLN135     -0.2717
    123  NE2       74.2000   18.7390    9.0450 N.am  135  GLN135     -0.0878
    124  N         78.1710   29.2290   19.1720 N.3   170  TYR170     -0.1241
    125  CA        78.0170   30.3350   18.2330 C.3   170  TYR170      0.1605
    126  C         76.7230   30.3300   17.4110 C.2   170  TYR170      0.2264
    127  O         76.0920   29.2900   17.2120 O.2   170  TYR170     -0.2867
    128  CB        79.2590   30.5050   17.3530 C.3   170  TYR170      0.0534
    129  CG        79.5090   29.4210   16.3310 C.ar  170  TYR170     -0.0201
    130  CD1       78.7740   29.3780   15.1430 C.ar  170  TYR170     -0.0009
    131  CD2       80.5390   28.4930   16.5060 C.ar  170  TYR170     -0.0009
    132  CE1       79.0600   28.4480   14.1480 C.ar  170  TYR170      0.0417
    133  CE2       80.8370   27.5530   15.5120 C.ar  170  TYR170      0.0417
    134  CZ        80.0910   27.5440   14.3360 C.ar  170  TYR170      0.1957
    135  OH        80.3840   26.6550   13.3300 O.3   170  TYR170     -0.2866
    136  N         76.9600   28.8700    2.9370 N.3   176  GLU176     -0.1245
    137  CA        77.5750   27.5560    2.8290 C.3   176  GLU176      0.1567
    138  C         77.6010   27.1990    1.3500 C.2   176  GLU176      0.2260
    139  O         76.6750   27.5310    0.6150 O.2   176  GLU176     -0.2867
    140  CB        76.7760   26.5220    3.6200 C.3   176  GLU176      0.0388
    141  CG        77.4870   25.1810    3.7800 C.3   176  GLU176      0.1160
    142  CD        77.0840   24.4340    5.0480 C.2   176  GLU176      0.3649
    143  OE1       76.3120   24.9650    5.8760 O.co2 176  GLU176     -0.2457
    144  OE2       77.6650   23.1330    5.1860 O.co2 176  GLU176     -0.2457
@<TRIPOS>BOND
     1    21    22    1
     2   139   138    2
     3    22    25    1
     4    22    23    1
     5   138   137    1
     6    25    26    1
     7    23    24    2
     8    28    26   am
     9    26    27    2
    10   137   136    1
    11   137   140    1
    12   140   141    1
    13   141   142    1
    14    29    30    1
    15   142   144   ar
    16   142   143   ar
    17    30    31    1
    18    30    33    1
    19    10     9    2
    20    19    20   ar
    21    19    17   ar
    22    20    18   ar
    23     9     8    1
    24    31    32    2
    25    33    35    1
    26    33    34    1
    27    17    14   ar
    28    18    16   ar
    29    92    91    1
    30    14    16   ar
    31    14    12   ar
    32    93    91    1
    33     8     7    1
    34     8    11    1
    35    16    15   ar
    36    91    90    2
    37    80    78   ar
    38    80    81   ar
    39    82    81    1
    40    78    76   ar
    41    12    11    1
    42    12    13   ar
    43    81    79   ar
    44    15    13   ar
    45   122   121    2
    46    90    89    1
    47    76    75    1
    48    76    77   ar
    49    75    72    1
    50   123   121   am
    51    79    77   ar
    52    89    88    1
    53   121   120    1
    54     4     3    2
    55    99   100    1
    56    99    98    1
    57   100    94    1
    58    73    74    2
    59    73    72    1
    60    72    71    1
    61    40    41    1
    62    40    37    1
    63     3     2    1
    64    41    42   ar
    65    41    43   ar
    66    42    44   ar
    67    88    87    1
    68    70    68   ar
    69    44    46   ar
    70    43    45   ar
    71    98    95    1
    72   120   119    1
    73    46    45   ar
    74    46    47    1
    75    69    68   ar
    76    36    37    1
    77   119   116    1
    78    68    67    1
    79    84    87    1
    80    84    83    1
    81    84    85    1
    82    37    38    1
    83    94    95    1
    84     2     1    1
    85     2     5    1
    86    95    96    1
    87   118   117    2
    88    85    86    2
    89     6     5    1
    90    97    96    2
    91    67    66    1
    92   117   116    1
    93   116   115    1
    94    38    39    2
    95    96   101   am
    96   135   134    1
    97    66    63    1
    98    65    64    2
    99    59    61   ar
   100    59    57   ar
   101    64    63    1
   102   101   102    1
   103   132   134   ar
   104   132   130   ar
   105    56    57   ar
   106    56    54   ar
   107   134   133   ar
   108    61    60   ar
   109    57    55   ar
   110    63    62    1
   111   102   103    1
   112   102   105    1
   113   130   129   ar
   114    54    53   ar
   115   104   103    2
   116   133   131   ar
   117   103   107   am
   118    60    58   ar
   119   105   106    1
   120    55    53   ar
   121    55    58   ar
   122    53    52    1
   123   129   131   ar
   124   129   128    1
   125   107   108    1
   126    48    49    1
   127   113   111    1
   128   127   126    2
   129   108   111    1
   130   108   109    1
   131   128   125    1
   132   126   125    1
   133    49    52    1
   134    49    50    1
   135   111   112    1
   136   125   124    1
   137   109   110    2
   138   112   114    1
   139    50    51    2
