@<TRIPOS>MOLECULE
tmp/1refB00.pdb
 155 150 0 0 0
SMALL
GASTEIGER

@<TRIPOS>ATOM
      1  N         83.6040   32.9310   12.0970 N.3    15  SER15      -0.1217
      2  CA        84.0550   31.5570   12.0420 C.3    15  SER15       0.1889
      3  C         84.1410   31.1770   10.5790 C.2    15  SER15       0.2288
      4  O         83.1850   31.3620    9.8260 O.2    15  SER15      -0.2866
      5  CB        83.0720   30.6370   12.7690 C.3    15  SER15       0.2089
      6  OG        83.5080   29.2880   12.7220 O.3    15  SER15      -0.2183
      7  N         85.5700   27.9780    8.0790 N.3    17  TRP17      -0.1241
      8  CA        86.0320   26.6000    8.0130 C.3    17  TRP17       0.1605
      9  C         85.8950   26.0510    6.5960 C.2    17  TRP17       0.2264
     10  O         85.0180   26.4680    5.8390 O.2    17  TRP17      -0.2867
     11  CB        85.2000   25.7410    8.9800 C.3    17  TRP17       0.0550
     12  CG        85.4340   24.2590    8.8650 C.ar   17  TRP17       0.0003
     13  CD1       86.3340   23.5130    9.5730 C.ar   17  TRP17       0.0946
     14  CD2       84.7740   23.3480    7.9730 C.ar   17  TRP17       0.0152
     15  NE1       86.2800   22.1990    9.1730 N.ar   17  TRP17      -0.2442
     16  CE2       85.3320   22.0700    8.1930 C.ar   17  TRP17       0.0810
     17  CE3       83.7680   23.4920    7.0060 C.ar   17  TRP17       0.0012
     18  CZ2       84.9200   20.9390    7.4800 C.ar   17  TRP17       0.0191
     19  CZ3       83.3580   22.3650    6.2960 C.ar   17  TRP17       0.0001
     20  CH2       83.9350   21.1060    6.5380 C.ar   17  TRP17       0.0015
     21  N         83.9260   22.0070    0.3040 N.3    43  ASN43      -0.1240
     22  CA        82.9040   22.2960    1.3010 C.3    43  ASN43       0.1653
     23  C         83.4740   23.3390    2.2600 C.2    43  ASN43       0.2266
     24  O         84.5880   23.1850    2.7660 O.2    43  ASN43      -0.2867
     25  CB        82.5240   21.0150    2.0520 C.3    43  ASN43       0.1155
     26  CG        81.3460   21.2080    2.9960 C.2    43  ASN43       0.2627
     27  OD1       81.3150   20.6330    4.0830 O.2    43  ASN43      -0.2716
     28  ND2       80.3620   21.9970    2.5760 N.am   43  ASN43      -0.0877
     29  N         82.2550   26.7670    5.2110 N.3    45  VAL45      -0.1245
     30  CA        81.2430   27.4520    6.0100 C.3    45  VAL45       0.1561
     31  C         81.9060   28.6960    6.5950 C.2    45  VAL45       0.2260
     32  O         82.9620   28.5990    7.2120 O.2    45  VAL45      -0.2867
     33  CB        80.7380   26.5800    7.1930 C.3    45  VAL45       0.0252
     34  CG1       79.6200   27.3050    7.9350 C.3    45  VAL45       0.0019
     35  CG2       80.2510   25.2250    6.7020 C.3    45  VAL45       0.0019
     36  N         73.1750   29.9550   11.2000 N.3    76  TYR76      -0.1241
     37  CA        73.8060   28.6890   11.5300 C.3    76  TYR76       0.1605
     38  C         74.5150   28.7260   12.8860 C.2    76  TYR76       0.2264
     39  O         75.0290   29.7630   13.3030 O.2    76  TYR76      -0.2867
     40  CB        74.7820   28.3720   10.3880 C.3    76  TYR76       0.0534
     41  CG        75.8040   27.3000   10.6440 C.ar   76  TYR76      -0.0201
     42  CD1       75.5040   25.9580   10.4330 C.ar   76  TYR76      -0.0009
     43  CD2       77.0960   27.6330   11.0450 C.ar   76  TYR76      -0.0009
     44  CE1       76.4660   24.9770   10.6080 C.ar   76  TYR76       0.0417
     45  CE2       78.0620   26.6590   11.2230 C.ar   76  TYR76       0.0417
     46  CZ        77.7400   25.3340   11.0020 C.ar   76  TYR76       0.1957
     47  OH        78.6990   24.3690   11.1690 O.3    76  TYR76      -0.2866
     48  N         75.7690   26.1400   16.7100 N.3    78  TRP78      -0.1241
     49  CA        75.9210   24.8980   17.4430 C.3    78  TRP78       0.1605
     50  C         75.4110   24.9830   18.8680 C.2    78  TRP78       0.2264
     51  O         75.2510   26.0640   19.4390 O.2    78  TRP78      -0.2867
     52  CB        77.3920   24.4860   17.4910 C.3    78  TRP78       0.0550
     53  CG        77.9550   24.0750   16.1820 C.ar   78  TRP78       0.0003
     54  CD1       78.4100   24.8950   15.1920 C.ar   78  TRP78       0.0946
     55  CD2       78.1370   22.7380   15.7150 C.ar   78  TRP78       0.0152
     56  NE1       78.8650   24.1500   14.1350 N.ar   78  TRP78      -0.2442
     57  CE2       78.7100   22.8210   14.4280 C.ar   78  TRP78       0.0810
     58  CE3       77.8710   21.4740   16.2590 C.ar   78  TRP78       0.0012
     59  CZ2       79.0240   21.6870   13.6720 C.ar   78  TRP78       0.0191
     60  CZ3       78.1820   20.3450   15.5080 C.ar   78  TRP78       0.0001
     61  CH2       78.7530   20.4610   14.2280 C.ar   78  TRP78       0.0015
     62  N         73.9210   20.8130   15.4440 N.3    85  GLU85      -0.1245
     63  CA        74.3300   21.7620   14.4140 C.3    85  GLU85       0.1567
     64  C         72.9890   22.1700   13.8110 C.2    85  GLU85       0.2260
     65  O         72.2600   21.3250   13.3030 O.2    85  GLU85      -0.2867
     66  CB        75.1980   21.0700   13.3640 C.3    85  GLU85       0.0388
     67  CG        75.7660   21.9950   12.2900 C.3    85  GLU85       0.1160
     68  CD        76.4650   21.2270   11.1800 C.2    85  GLU85       0.3649
     69  OE1       75.9480   20.1670   10.7860 O.co2  85  GLU85      -0.2457
     70  OE2       77.7020   21.7460   10.6370 O.co2  85  GLU85      -0.2457
     71  N         70.3500   24.8380   11.4210 N.3    87  TYR87      -0.1241
     72  CA        70.2250   25.6750   10.2390 C.3    87  TYR87       0.1605
     73  C         68.8490   26.3050   10.0970 C.2    87  TYR87       0.2264
     74  O         67.8300   25.6320   10.2420 O.2    87  TYR87      -0.2867
     75  CB        70.4280   24.8420    8.9740 C.3    87  TYR87       0.0534
     76  CG        71.8240   24.3400    8.7110 C.ar   87  TYR87      -0.0201
     77  CD1       72.2870   23.1580    9.2950 C.ar   87  TYR87      -0.0009
     78  CD2       72.6540   25.0010    7.8080 C.ar   87  TYR87      -0.0009
     79  CE1       73.5380   22.6460    8.9760 C.ar   87  TYR87       0.0417
     80  CE2       73.9010   24.4990    7.4840 C.ar   87  TYR87       0.0417
     81  CZ        74.3360   23.3210    8.0670 C.ar   87  TYR87       0.1957
     82  OH        75.5590   22.8140    7.7160 O.3    87  TYR87      -0.2866
     83  N         74.3920   13.0570   11.6300 N.3   121  ARG121     -0.1245
     84  CA        75.7110   12.9230   11.0310 C.3   121  ARG121      0.1563
     85  C         76.5310   12.0430   11.9600 C.2   121  ARG121      0.2260
     86  O         76.7140   12.3670   13.1340 O.2   121  ARG121     -0.2867
     87  CB        76.3800   14.2870   10.8710 C.3   121  ARG121      0.0307
     88  CG        75.5950   15.2560   10.0050 C.3   121  ARG121      0.0489
     89  CD        76.5230   16.1270    9.1630 C.3   121  ARG121      0.2205
     90  NE        77.2180   15.3620    8.1270 N.pl3 121  ARG121     -0.0865
     91  CZ        76.6170   14.7600    7.1020 C.cat 121  ARG121      0.5346
     92  NH1       75.2980   14.8270    6.9590 N.pl3 121  ARG121      0.1354
     93  NH2       77.3390   14.0820    6.2200 N.pl3 121  ARG121      0.1354
     94  N         82.8190   15.9070   11.2050 N.3   125  PRO125     -0.2102
     95  CA        83.4700   17.0430   11.8690 C.3   125  PRO125      0.1504
     96  C         82.4630   17.9010   12.6400 C.2   125  PRO125      0.2576
     97  O         81.3290   18.1090   12.1900 O.2   125  PRO125     -0.2718
     98  CB        84.0730   17.8180   10.6960 C.3   125  PRO125      0.0282
     99  CG        84.3670   16.7440    9.7000 C.3   125  PRO125      0.0208
    100  CD        83.1130   15.9130    9.7600 C.3   125  PRO125      0.0893
    101  N         82.8850   18.3840   13.8040 N.am  126  SER126     -0.1938
    102  CA        82.0440   19.2230   14.6510 C.3   126  SER126      0.2055
    103  C         82.9300   20.1610   15.4670 C.2   126  SER126      0.2642
    104  O         84.1540   20.1450   15.3270 O.2   126  SER126     -0.2714
    105  CB        81.1970   18.3540   15.5880 C.3   126  SER126      0.2130
    106  OG        81.9890   17.7680   16.6060 O.3   126  SER126     -0.2179
    107  N         82.3120   20.9650   16.3280 N.am  127  ILE127     -0.1977
    108  CA        83.0540   21.9050   17.1670 C.3   127  ILE127      0.1596
    109  C         83.9290   21.2290   18.2270 C.2   127  ILE127      0.2287
    110  O         84.7940   21.8700   18.8210 O.2   127  ILE127     -0.2864
    111  CB        82.1150   22.9220   17.8610 C.3   127  ILE127      0.0276
    112  CG1       80.9460   22.1970   18.5330 C.3   127  ILE127      0.0022
    113  CG2       81.6330   23.9630   16.8580 C.3   127  ILE127      0.0022
    114  CD1       80.0740   23.0910   19.3790 C.3   127  ILE127      0.0001
    115  N         76.1810   13.6910   15.8320 N.3   133  PHE133     -0.1241
    116  CA        75.2210   14.6920   16.2780 C.3   133  PHE133      0.1605
    117  C         74.0480   14.8210   15.3160 C.2   133  PHE133      0.2264
    118  O         74.1120   14.3600   14.1770 O.2   133  PHE133     -0.2867
    119  CB        75.9310   16.0520   16.3760 C.3   133  PHE133      0.0534
    120  CG        76.7040   16.4270   15.1300 C.ar  133  PHE133     -0.0203
    121  CD1       78.0330   16.0370   14.9760 C.ar  133  PHE133     -0.0042
    122  CD2       76.0970   17.1440   14.1030 C.ar  133  PHE133     -0.0042
    123  CE1       78.7460   16.3510   13.8190 C.ar  133  PHE133     -0.0003
    124  CE2       76.8010   17.4620   12.9410 C.ar  133  PHE133     -0.0003
    125  CZ        78.1300   17.0630   12.8000 C.ar  133  PHE133     -0.0000
    126  N         71.2550   17.2590   13.2190 N.3   135  GLN135     -0.1245
    127  CA        71.1920   18.5460   12.5450 C.3   135  GLN135      0.1566
    128  C         69.7270   18.9570   12.5410 C.2   135  GLN135      0.2260
    129  O         68.8610   18.1450   12.2160 O.2   135  GLN135     -0.2867
    130  CB        71.6430   18.4360   11.0860 C.3   135  GLN135      0.0367
    131  CG        73.0920   18.0740   10.8410 C.3   135  GLN135      0.0905
    132  CD        73.4040   18.0130    9.3520 C.2   135  GLN135      0.2608
    133  OE1       72.6260   17.4770    8.5650 O.2   135  GLN135     -0.2717
    134  NE2       74.5420   18.5670    8.9600 N.am  135  GLN135     -0.0878
    135  N         78.5950   29.2240   19.1910 N.3   170  TYR170     -0.1241
    136  CA        78.4510   30.3430   18.2600 C.3   170  TYR170      0.1605
    137  C         77.1580   30.3340   17.4430 C.2   170  TYR170      0.2264
    138  O         76.5440   29.2870   17.2270 O.2   170  TYR170     -0.2867
    139  CB        79.6880   30.5140   17.3670 C.3   170  TYR170      0.0534
    140  CG        79.9140   29.4580   16.3050 C.ar  170  TYR170     -0.0201
    141  CD1       79.1280   29.4200   15.1520 C.ar  170  TYR170     -0.0009
    142  CD2       80.9600   28.5390   16.4200 C.ar  170  TYR170     -0.0009
    143  CE1       79.3790   28.4990   14.1400 C.ar  170  TYR170      0.0417
    144  CE2       81.2200   27.6130   15.4120 C.ar  170  TYR170      0.0417
    145  CZ        80.4260   27.6010   14.2760 C.ar  170  TYR170      0.1957
    146  OH        80.6780   26.6960   13.2710 O.3   170  TYR170     -0.2866
    147  N         77.3490   28.7430    3.1620 N.3   176  GLU176     -0.1245
    148  CA        77.9820   27.4430    3.0340 C.3   176  GLU176      0.1567
    149  C         77.9540   27.0730    1.5610 C.2   176  GLU176      0.2260
    150  O         77.0280   27.4390    0.8420 O.2   176  GLU176     -0.2867
    151  CB        77.2500   26.3860    3.8660 C.3   176  GLU176      0.0388
    152  CG        77.8250   24.9780    3.7020 C.3   176  GLU176      0.1160
    153  CD        77.4240   24.0150    4.8110 C.2   176  GLU176      0.3649
    154  OE1       76.7670   24.4400    5.7830 O.co2 176  GLU176     -0.2457
    155  OE2       77.7880   22.8240    4.7170 O.co2 176  GLU176     -0.2457
@<TRIPOS>BOND
     1    21    22    1
     2   150   149    2
     3    22    25    1
     4    22    23    1
     5   149   148    1
     6    25    26    1
     7    23    24    2
     8    28    26   am
     9    26    27    2
    10   148   147    1
    11   148   151    1
    12   152   151    1
    13   152   153    1
    14   155   153   ar
    15   153   154   ar
    16    29    30    1
    17    10     9    2
    18    30    31    1
    19    30    33    1
    20    93    91    1
    21    19    20   ar
    22    19    17   ar
    23    20    18   ar
    24    31    32    2
    25     9     8    1
    26    35    33    1
    27    92    91    1
    28    17    14   ar
    29    91    90    2
    30    33    34    1
    31    18    16   ar
    32    80    78   ar
    33    80    81   ar
    34    82    81    1
    35    78    76   ar
    36    14    16   ar
    37    14    12   ar
    38     8     7    1
    39     8    11    1
    40    81    79   ar
    41    90    89    1
    42    16    15   ar
    43   133   132    2
    44    76    75    1
    45    76    77   ar
    46    12    11    1
    47    12    13   ar
    48   134   132   am
    49    75    72    1
    50    79    77   ar
    51    89    88    1
    52    15    13   ar
    53   132   131    1
    54    99   100    1
    55    99    98    1
    56   100    94    1
    57     4     3    2
    58    88    87    1
    59    73    72    1
    60    73    74    2
    61    72    71    1
    62    40    41    1
    63    40    37    1
    64    42    44   ar
    65    42    41   ar
    66     3     2    1
    67    44    46   ar
    68    70    68   ar
    69    41    43   ar
    70    98    95    1
    71    69    68   ar
    72   131   130    1
    73    87    84    1
    74    46    47    1
    75    46    45   ar
    76    84    83    1
    77    84    85    1
    78    43    45   ar
    79   130   127    1
    80    68    67    1
    81    36    37    1
    82    94    95    1
    83    37    38    1
    84    95    96    1
    85    85    86    2
    86     2     1    1
    87     2     5    1
    88    97    96    2
    89   129   128    2
    90    67    66    1
    91   128   127    1
    92   127   126    1
    93    96   101   am
    94     6     5    1
    95   125   124   ar
    96   125   123   ar
    97    38    39    2
    98   124   122   ar
    99   146   145    1
   100    65    64    2
   101    66    63    1
   102    59    61   ar
   103    59    57   ar
   104   101   102    1
   105    64    63    1
   106   123   121   ar
   107   122   120   ar
   108    56    57   ar
   109    56    54   ar
   110   143   145   ar
   111   143   141   ar
   112   118   117    2
   113    61    60   ar
   114   145   144   ar
   115    63    62    1
   116    57    55   ar
   117   102   103    1
   118   102   105    1
   119   121   120   ar
   120   120   119    1
   121   141   140   ar
   122    54    53   ar
   123   117   116    1
   124   104   103    2
   125   144   142   ar
   126   103   107   am
   127    60    58   ar
   128   105   106    1
   129    55    53   ar
   130    55    58   ar
   131   115   116    1
   132    53    52    1
   133   116   119    1
   134   140   142   ar
   135   140   139    1
   136   107   108    1
   137    48    49    1
   138   113   111    1
   139   108   111    1
   140   108   109    1
   141   138   137    2
   142   139   136    1
   143   137   136    1
   144    49    52    1
   145    49    50    1
   146   111   112    1
   147   109   110    2
   148   136   135    1
   149   112   114    1
   150    50    51    2
