@<TRIPOS>MOLECULE
tmp/1rejA00.pdb
 208 199 0 0 0
SMALL
GASTEIGER

@<TRIPOS>ATOM
      1  N         12.4670   33.7890   13.7870 N.3    34  LEU34      -0.1231
      2  CA        12.3660   33.9780   15.2410 C.3    34  LEU34       0.1693
      3  C         11.0000   34.4560   15.7540 C.2    34  LEU34       0.2593
      4  O         10.6160   34.2400   16.9080 O.2    34  LEU34      -0.2718
      5  CB        13.4200   34.9850   15.6670 C.3    34  LEU34       0.0284
      6  CG        14.7760   34.5530   16.1880 C.3    34  LEU34       0.0019
      7  CD1       15.1600   33.2540   15.5400 C.3    34  LEU34       0.0001
      8  CD2       15.7780   35.6800   15.9940 C.3    34  LEU34       0.0001
      9  N         10.2510   35.1330   14.8810 N.am   35  GLY35      -0.1942
     10  CA         8.9250   35.6510   15.1650 C.3    35  GLY35       0.2014
     11  C          8.3560   36.3350   13.9350 C.2    35  GLY35       0.2640
     12  O          9.0600   36.6630   12.9790 O.2    35  GLY35      -0.2714
     13  N          7.0420   36.5040   13.8990 N.am   36  THR36      -0.1936
     14  CA         6.4320   37.2960   12.8490 C.3    36  THR36       0.2028
     15  C          5.5230   38.3430   13.4910 C.2    36  THR36       0.2643
     16  O          5.2040   38.2580   14.6770 O.2    36  THR36      -0.2714
     17  CB         5.6130   36.4210   11.9110 C.3    36  THR36       0.1808
     18  OG1        4.6350   35.8170   12.7430 O.3    36  THR36      -0.2208
     19  CG2        6.4500   35.4020   11.1340 C.3    36  THR36       0.0379
     20  N          5.1190   39.3720   12.7580 N.am   37  GLY37      -0.1939
     21  CA         4.2230   40.3540   13.3090 C.3    37  GLY37       0.2014
     22  C          3.3200   40.9010   12.2390 C.2    37  GLY37       0.2640
     23  O          3.1870   40.3400   11.1460 O.2    37  GLY37      -0.2714
     24  N          2.6880   42.0160   12.6100 N.am   38  SER38      -0.1935
     25  CA         1.7310   42.6910   11.7510 C.3    38  SER38       0.2055
     26  C          2.2470   43.0620   10.3710 C.2    38  SER38       0.2643
     27  O          1.5370   42.9080    9.3800 O.2    38  SER38      -0.2714
     28  CB         1.2410   43.9580   12.4320 C.3    38  SER38       0.2130
     29  OG         0.4860   43.6650   13.5940 O.3    38  SER38      -0.2179
     30  N          3.4820   43.5690   10.3070 N.am   39  PHE39      -0.1959
     31  CA         4.0300   44.0250    9.0480 C.3    39  PHE39       0.1774
     32  C          5.1970   43.2170    8.5250 C.2    39  PHE39       0.2659
     33  O          5.8030   43.5890    7.5250 O.2    39  PHE39      -0.2711
     34  CB         4.4390   45.4830    9.1930 C.3    39  PHE39       0.0574
     35  CG         3.3320   46.3110    9.8180 C.ar   39  PHE39      -0.0200
     36  CD1        3.5860   46.9660   11.0240 C.ar   39  PHE39      -0.0042
     37  CD2        2.0660   46.3490    9.2240 C.ar   39  PHE39      -0.0042
     38  CE1        2.5540   47.6590   11.6410 C.ar   39  PHE39      -0.0003
     39  CE2        1.0420   47.0430    9.8500 C.ar   39  PHE39      -0.0003
     40  CZ         1.2870   47.6940   11.0550 C.ar   39  PHE39      -0.0000
     41  N          5.4950   42.0800    9.1600 N.am   40  GLY40      -0.1716
     42  CA         6.5650   41.2240    8.6970 C.2    40  GLY40       0.1480
     43  C          6.9720   40.0860    9.6220 C.2    40  GLY40       0.2820
     44  O          6.1710   39.2290    9.9970 O.2    40  GLY40      -0.2669
     45  N          8.2700   40.0910    9.9470 N.am   41  ARG41      -0.1929
     46  CA         8.8890   39.0490   10.7380 C.3    41  ARG41       0.1732
     47  C         10.2590   39.4350   11.2540 C.2    41  ARG41       0.2616
     48  O         10.8890   40.3370   10.7160 O.2    41  ARG41      -0.2715
     49  CB         9.0470   37.7700    9.9140 C.3    41  ARG41       0.0348
     50  CG         9.8380   37.9160    8.6250 C.3    41  ARG41       0.0492
     51  CD         9.8300   36.6470    7.7990 C.3    41  ARG41       0.2205
     52  NE         8.5030   36.1690    7.4140 N.pl3  41  ARG41      -0.0865
     53  CZ         8.2310   34.8490    7.3190 C.cat  41  ARG41       0.5346
     54  NH1        9.1630   33.9200    7.5740 N.pl3  41  ARG41       0.1354
     55  NH2        7.0110   34.4350    6.9550 N.pl3  41  ARG41       0.1354
     56  N         10.7210   38.7490   12.3060 N.am   42  VAL42      -0.1977
     57  CA        12.0600   38.9260   12.8280 C.3    42  VAL42       0.1596
     58  C         12.7870   37.6140   12.5450 C.2    42  VAL42       0.2287
     59  O         12.3310   36.5190   12.8740 O.2    42  VAL42      -0.2864
     60  CB        12.0550   39.2150   14.3590 C.3    42  VAL42       0.0276
     61  CG1       13.4690   39.3320   14.9080 C.3    42  VAL42       0.0022
     62  CG2       11.4450   40.5700   14.6120 C.3    42  VAL42       0.0022
     63  N         19.1640   40.0110   15.1540 N.3    55  ALA55      -0.1245
     64  CA        17.7950   39.6750   14.8420 C.3    55  ALA55       0.1562
     65  C         17.3440   40.7780   13.9330 C.2    55  ALA55       0.2260
     66  O         17.2250   41.9250   14.3510 O.2    55  ALA55      -0.2867
     67  CB        16.9030   39.6870   16.0520 C.3    55  ALA55       0.0290
     68  N         14.5600   42.5080   11.8630 N.3    57  LYS57      -0.1245
     69  CA        13.1310   42.7260   11.6810 C.3    57  LYS57       0.1561
     70  C         12.8880   43.3070   10.2970 C.2    57  LYS57       0.2260
     71  O         13.5170   44.2990    9.9430 O.2    57  LYS57      -0.2867
     72  CB        12.6240   43.6900   12.6970 C.3    57  LYS57       0.0271
     73  CG        11.1260   43.8450   12.6490 C.3    57  LYS57       0.0035
     74  CD        10.8550   44.8930   13.6920 C.3    57  LYS57       0.0206
     75  CE         9.6090   44.4970   14.4120 C.3    57  LYS57       0.1093
     76  NZ         9.3770   45.3750   15.5270 N.3    57  LYS57      -0.1314
     77  N          9.9530   44.7920    7.7750 N.3    59  LEU59      -0.1245
     78  CA         8.5680   45.1930    7.5900 C.3    59  LEU59       0.1561
     79  C          8.4000   45.6010    6.1650 C.2    59  LEU59       0.2260
     80  O          9.1800   46.3670    5.6220 O.2    59  LEU59      -0.2867
     81  CB         8.1150   46.4080    8.3950 C.3    59  LEU59       0.0270
     82  CG         8.2430   46.5510    9.8900 C.3    59  LEU59       0.0019
     83  CD1        8.2310   45.1910   10.6040 C.3    59  LEU59       0.0001
     84  CD2        9.5170   47.3180   10.1290 C.3    59  LEU59       0.0001
     85  N         16.3980   46.1040   24.0730 N.3    89  VAL89      -0.1245
     86  CA        17.1060   45.4890   22.9360 C.3    89  VAL89       0.1561
     87  C         17.7260   46.6280   22.1350 C.2    89  VAL89       0.2260
     88  O         17.0360   47.5730   21.7630 O.2    89  VAL89      -0.2867
     89  CB        16.1570   44.6720   21.9750 C.3    89  VAL89       0.0252
     90  CG1       16.9220   44.1770   20.7660 C.3    89  VAL89       0.0019
     91  CG2       15.6730   43.3860   22.6290 C.3    89  VAL89       0.0019
     92  N         18.5340   44.1840   15.2090 N.3   105  MET105     -0.1230
     93  CA        18.6510   44.2810   16.6420 C.3   105  MET105      0.1702
     94  C         19.5790   43.2080   17.1220 C.2   105  MET105      0.2592
     95  O         19.7980   42.2310   16.4230 O.2   105  MET105     -0.2718
     96  CB        17.3020   44.0680   17.2790 C.3   105  MET105      0.0401
     97  CG        16.2360   45.0880   16.9940 C.3   105  MET105      0.0596
     98  SD        14.6200   44.2790   17.0720 S.3   105  MET105     -0.1393
     99  CE        13.7280   45.6720   16.4350 C.3   105  MET105      0.0692
    100  N         20.1080   43.3660   18.3260 N.am  106  GLU106     -0.1966
    101  CA        20.9070   42.3180   18.9320 C.3   106  GLU106      0.1733
    102  C         20.0800   41.0480   19.1820 C.2   106  GLU106      0.2616
    103  O         18.8880   41.0650   19.5300 O.2   106  GLU106     -0.2715
    104  CB        21.4940   42.8170   20.2460 C.3   106  GLU106      0.0429
    105  CG        20.4590   43.5000   21.1380 C.3   106  GLU106      0.1163
    106  CD        20.8130   43.7100   22.6080 C.2   106  GLU106      0.3649
    107  OE1       21.9960   43.8210   22.9460 O.co2 106  GLU106     -0.2457
    108  OE2       19.8820   43.7700   23.4140 O.co2 106  GLU106     -0.2457
    109  N         20.7380   39.9120   18.9190 N.am  107  TYR107     -0.1960
    110  CA        20.1280   38.6090   19.1080 C.3   107  TYR107      0.1771
    111  C         20.1240   38.2780   20.5910 C.2   107  TYR107      0.2619
    112  O         21.1400   38.3010   21.2840 O.2   107  TYR107     -0.2715
    113  CB        20.9120   37.5530   18.3130 C.3   107  TYR107      0.0574
    114  CG        20.2510   36.1870   18.3570 C.ar  107  TYR107     -0.0198
    115  CD1       18.8750   36.0860   18.1260 C.ar  107  TYR107     -0.0009
    116  CD2       21.0020   35.0540   18.6710 C.ar  107  TYR107     -0.0009
    117  CE1       18.2380   34.8530   18.2190 C.ar  107  TYR107      0.0417
    118  CE2       20.3670   33.8150   18.7590 C.ar  107  TYR107      0.0417
    119  CZ        18.9890   33.7270   18.5320 C.ar  107  TYR107      0.1957
    120  OH        18.3490   32.5080   18.5810 O.3   107  TYR107     -0.2866
    121  N         18.9210   38.0350   21.0860 N.am  108  VAL108     -0.1977
    122  CA        18.7530   37.7350   22.4910 C.3   108  VAL108      0.1596
    123  C         18.2130   36.3210   22.5030 C.2   108  VAL108      0.2287
    124  O         17.0170   36.0160   22.4600 O.2   108  VAL108     -0.2864
    125  CB        17.7780   38.7540   23.1220 C.3   108  VAL108      0.0276
    126  CG1       17.6910   38.5290   24.6300 C.3   108  VAL108      0.0022
    127  CG2       18.2720   40.1670   22.8710 C.3   108  VAL108      0.0022
    128  N         11.5020   34.8090   24.2730 N.3   112  GLU112     -0.1196
    129  CA        10.4730   35.5370   24.9930 C.3   112  GLU112      0.1783
    130  C         10.2130   35.0030   26.3810 C.2   112  GLU112      0.2306
    131  O         10.1420   33.7920   26.5740 O.2   112  GLU112     -0.2863
    132  CB         9.1470   35.4940   24.2450 C.2   112  GLU112      0.0071
    133  CG         9.1280   36.1690   22.8780 C.2   112  GLU112      0.0834
    134  CD         7.9660   35.8090   21.9450 C.2   112  GLU112      0.3877
    135  OE1        6.9510   35.2430   22.3700 O.co2 112  GLU112     -0.2406
    136  OE2        8.0950   36.0990   20.7540 O.co2 112  GLU112     -0.2406
    137  N          4.0070   43.2660   27.7740 N.3   153  LYS153     -0.1245
    138  CA         3.3980   41.9280   27.8630 C.3   153  LYS153      0.1561
    139  C          4.5650   40.9180   27.7740 C.2   153  LYS153      0.2260
    140  O          5.6400   41.3140   27.3110 O.2   153  LYS153     -0.2867
    141  CB         2.3880   41.7240   26.7130 C.3   153  LYS153      0.0271
    142  CG         2.9280   41.8670   25.2860 C.3   153  LYS153      0.0035
    143  CD         1.7830   41.8860   24.2890 C.3   153  LYS153      0.0206
    144  CE         2.2680   41.4760   22.8940 C.3   153  LYS153      0.1093
    145  NZ         1.2010   41.4580   21.8990 N.3   153  LYS153     -0.1314
    146  N          5.5620   38.5420   25.8570 N.3   155  GLU155     -0.1231
    147  CA         6.0000   38.2580   24.4840 C.3   155  GLU155      0.1699
    148  C          6.9860   39.2990   23.9770 C.2   155  GLU155      0.2592
    149  O          7.8450   39.0190   23.1360 O.2   155  GLU155     -0.2718
    150  CB         4.8560   38.2780   23.4930 C.3   155  GLU155      0.0402
    151  CG         3.7760   37.2760   23.7600 C.3   155  GLU155      0.1161
    152  CD         2.5100   37.7400   24.4880 C.2   155  GLU155      0.3649
    153  OE1        2.5290   38.5300   25.4390 O.co2 155  GLU155     -0.2457
    154  OE2        1.4580   37.2440   24.0920 O.co2 155  GLU155     -0.2457
    155  N          6.8240   40.5210   24.5040 N.am  156  ASN156     -0.1974
    156  CA         7.6710   41.6430   24.1420 C.3   156  ASN156      0.1688
    157  C          8.8580   41.8390   25.0660 C.2   156  ASN156      0.2292
    158  O          9.5100   42.8830   25.0560 O.2   156  ASN156     -0.2864
    159  CB         6.8420   42.8920   24.1320 C.3   156  ASN156      0.1181
    160  CG         5.7000   42.8500   23.1270 C.2   156  ASN156      0.2629
    161  OD1        5.4950   41.8860   22.3830 O.2   156  ASN156     -0.2716
    162  ND2        4.9240   43.9180   23.0840 N.am  156  ASN156     -0.0877
    163  N         12.3040   39.8200   26.2620 N.3   158  LEU158     -0.1245
    164  CA        13.1980   38.7330   25.9420 C.3   158  LEU158      0.1561
    165  C         14.1400   38.5520   27.1080 C.2   158  LEU158      0.2260
    166  O         14.4520   39.5080   27.8260 O.2   158  LEU158     -0.2867
    167  CB        13.9860   39.0590   24.7090 C.3   158  LEU158      0.0270
    168  CG        13.3030   39.6250   23.4850 C.3   158  LEU158      0.0019
    169  CD1       14.4070   39.9850   22.5290 C.3   158  LEU158      0.0001
    170  CD2       12.3420   38.6510   22.8090 C.3   158  LEU158      0.0001
    171  N         11.6430   44.6340   23.9330 N.3   168  THR168     -0.1203
    172  CA        11.6210   44.8280   22.4880 C.3   168  THR168      0.1994
    173  C         10.2090   45.2760   22.1200 C.2   168  THR168      0.2617
    174  O          9.4260   45.6730   22.9890 O.2   168  THR168     -0.2717
    175  CB        12.0620   43.4750   21.7870 C.3   168  THR168      0.1784
    176  OG1       12.1850   43.7550   20.4040 O.3   168  THR168     -0.2211
    177  CG2       11.0940   42.3270   21.9710 C.3   168  THR168      0.0376
    178  N          9.8810   45.2380   20.8230 N.am  169  ASP169     -0.1973
    179  CA         8.6210   45.7090   20.2520 C.3   169  ASP169      0.1709
    180  C          8.2310   47.1480   20.6080 C.2   169  ASP169      0.2293
    181  O          7.3010   47.4180   21.3680 O.2   169  ASP169     -0.2864
    182  CB         7.4860   44.7430   20.6540 C.3   169  ASP169      0.1436
    183  CG         7.6110   43.3280   20.0990 C.2   169  ASP169      0.3671
    184  OD1        8.2090   42.4940   20.7670 O.co2 169  ASP169     -0.2456
    185  OD2        7.1010   43.0460   19.0180 O.co2 169  ASP169     -0.2456
    186  N         12.9590   29.9190   20.6300 N.3   311  PHE311     -0.1241
    187  CA        11.9650   30.5760   19.7810 C.3   311  PHE311      0.1605
    188  C         11.2270   29.5010   18.9910 C.2   311  PHE311      0.2264
    189  O         11.6910   28.3680   18.9020 O.2   311  PHE311     -0.2867
    190  CB        12.6220   31.5430   18.7790 C.3   311  PHE311      0.0534
    191  CG        13.4150   32.6920   19.3780 C.ar  311  PHE311     -0.0203
    192  CD1       12.7890   33.9240   19.5560 C.ar  311  PHE311     -0.0042
    193  CD2       14.7590   32.5340   19.7210 C.ar  311  PHE311     -0.0042
    194  CE1       13.5100   35.0030   20.0760 C.ar  311  PHE311     -0.0003
    195  CE2       15.4660   33.6190   20.2370 C.ar  311  PHE311     -0.0003
    196  CZ        14.8490   34.8510   20.4150 C.ar  311  PHE311     -0.0000
    197  N          8.4580   28.8240   12.4440 N.3   314  TYR314     -0.1241
    198  CA         7.5200   29.5430   11.5980 C.3   314  TYR314      0.1605
    199  C          7.8410   29.1460   10.1870 C.2   314  TYR314      0.2264
    200  O          8.9440   28.6630    9.9160 O.2   314  TYR314     -0.2867
    201  CB         7.6770   31.0620   11.6910 C.3   314  TYR314      0.0534
    202  CG         7.5360   31.6090   13.0960 C.ar  314  TYR314     -0.0201
    203  CD1        6.2800   31.9810   13.5940 C.ar  314  TYR314     -0.0009
    204  CD2        8.6710   31.6880   13.8960 C.ar  314  TYR314     -0.0009
    205  CE1        6.1670   32.4260   14.9150 C.ar  314  TYR314      0.0417
    206  CE2        8.5580   32.1280   15.2040 C.ar  314  TYR314      0.0417
    207  CZ         7.3150   32.4900   15.7060 C.ar  314  TYR314      0.1957
    208  OH         7.2420   32.8880   17.0240 O.3   314  TYR314     -0.2866
@<TRIPOS>BOND
     1    80    79    2
     2    79    78    1
     3    55    53    1
     4    53    52    2
     5    53    54    1
     6    52    51    1
     7    33    32    2
     8    78    77    1
     9    78    81    1
    10    51    50    1
    11    81    82    1
    12    32    31    1
    13    32    41    1
    14    50    49    1
    15    42    41    2
    16    42    43    1
    17    31    34    1
    18    31    30    1
    19    34    35    1
    20    37    35   ar
    21    37    39   ar
    22    27    26    2
    23    43    45   am
    24    43    44    2
    25    35    36   ar
    26    39    40   ar
    27    82    84    1
    28    82    83    1
    29    49    46    1
    30   200   199    2
    31    71    70    2
    32    45    46    1
    33   199   198    1
    34    70    69    1
    35    30    26   am
    36    26    25    1
    37    48    47    2
    38    46    47    1
    39    36    38   ar
    40    40    38   ar
    41    19    17    1
    42    23    22    2
    43    47    56   am
    44   198   201    1
    45   198   197    1
    46    69    68    1
    47    69    72    1
    48   201   202    1
    49    25    28    1
    50    25    24    1
    51    17    18    1
    52    17    14    1
    53    22    24   am
    54    22    21    1
    55    56    57    1
    56    28    29    1
    57    58    57    1
    58    58    59    2
    59    73    72    1
    60    73    74    1
    61    20    21    1
    62    20    15   am
    63    57    60    1
    64    14    15    1
    65    14    13    1
    66    12    11    2
    67   202   203   ar
    68   202   204   ar
    69    15    16    2
    70   203   205   ar
    71    74    75    1
    72     1     2    1
    73   204   206   ar
    74    13    11   am
    75    65    66    2
    76    65    64    1
    77    11    10    1
    78    60    62    1
    79    60    61    1
    80    75    76    1
    81    64    63    1
    82    64    67    1
    83     9    10    1
    84     9     3   am
    85   205   207   ar
    86   206   207   ar
    87    92    93    1
    88     2     5    1
    89     2     3    1
    90     7     6    1
    91     5     6    1
    92   207   208    1
    93     3     4    2
    94     8     6    1
    95    95    94    2
    96    99    98    1
    97    93    94    1
    98    93    96    1
    99    97    98    1
   100    97    96    1
   101    94   100   am
   102   115   117   ar
   103   115   114   ar
   104   117   119   ar
   105   113   114    1
   106   113   110    1
   107   100   101    1
   108   114   116   ar
   109   119   120    1
   110   119   118   ar
   111   116   118   ar
   112   190   191    1
   113   190   187    1
   114   189   188    2
   115   109   110    1
   116   109   102   am
   117   101   102    1
   118   101   104    1
   119   188   187    1
   120   185   183   ar
   121   110   111    1
   122   102   103    2
   123   191   192   ar
   124   191   193   ar
   125   192   194   ar
   126   193   195   ar
   127   187   186    1
   128   194   196   ar
   129   183   182    1
   130   183   184   ar
   131   195   196   ar
   132   104   105    1
   133   179   180    1
   134   179   182    1
   135   179   178    1
   136   176   175    1
   137   111   121   am
   138   111   112    2
   139   180   181    2
   140   136   134   ar
   141    90    89    1
   142   178   173   am
   143   121   122    1
   144   105   106    1
   145    88    87    2
   146   175   177    1
   147   175   172    1
   148   145   144    1
   149   134   135   ar
   150   134   133    1
   151    89    91    1
   152    89    86    1
   153   173   172    1
   154   173   174    2
   155    87    86    1
   156   161   160    2
   157   124   123    2
   158   172   171    1
   159   122   123    1
   160   122   125    1
   161   169   168    1
   162   106   107   ar
   163   106   108   ar
   164   170   168    1
   165   127   125    1
   166   133   132    2
   167   144   143    1
   168    86    85    1
   169   162   160   am
   170   125   126    1
   171   160   159    1
   172   149   148    2
   173   168   167    1
   174   150   151    1
   175   150   147    1
   176   151   152    1
   177   148   147    1
   178   148   155   am
   179   154   152   ar
   180   159   156    1
   181   156   155    1
   182   156   157    1
   183   132   129    1
   184   128   129    1
   185   143   142    1
   186   147   146    1
   187   152   153   ar
   188   167   164    1
   189   129   130    1
   190   158   157    2
   191   142   141    1
   192   164   163    1
   193   164   165    1
   194   130   131    2
   195   141   138    1
   196   165   166    2
   197   140   139    2
   198   139   138    1
   199   137   138    1
