@<TRIPOS>MOLECULE
tmp/1rf4B00.pdb
 210 197 0 0 0
SMALL
GASTEIGER

@<TRIPOS>ATOM
      1  N         69.8430   81.5360   -5.4390 N.3    20  LYS20      -0.1231
      2  CA        69.2390   80.2180   -5.2510 C.3    20  LYS20       0.1693
      3  C         67.7650   80.2550   -4.8470 C.2    20  LYS20       0.2592
      4  O         66.9500   79.5100   -5.3920 O.2    20  LYS20      -0.2718
      5  CB        70.0430   79.4190   -4.2170 C.3    20  LYS20       0.0285
      6  CG        69.5800   77.9730   -4.0350 C.3    20  LYS20       0.0035
      7  CD        70.6700   77.1040   -3.3820 C.3    20  LYS20       0.0206
      8  CE        71.0580   77.5950   -1.9850 C.3    20  LYS20       0.1093
      9  NZ        69.9350   77.4530   -1.0140 N.3    20  LYS20      -0.1314
     10  N         67.4250   81.1160   -3.8940 N.am   21  SER21      -0.1952
     11  CA        66.0470   81.2220   -3.4270 C.3    21  SER21       0.1924
     12  C         65.1030   81.5980   -4.5640 C.2    21  SER21       0.2314
     13  O         64.0240   81.0220   -4.7060 O.2    21  SER21      -0.2863
     14  CB        65.9340   82.2630   -2.3120 C.3    21  SER21       0.2116
     15  OG        66.6260   81.8530   -1.1500 O.3    21  SER21      -0.2180
     16  N         62.1940   79.1850   -6.6780 N.3    25  ARG25      -0.1245
     17  CA        60.8360   79.6860   -6.8190 C.3    25  ARG25       0.1563
     18  C         60.4110   79.9240   -8.2640 C.2    25  ARG25       0.2260
     19  O         59.2260   79.8010   -8.5850 O.2    25  ARG25      -0.2867
     20  CB        60.6720   80.9550   -5.9760 C.3    25  ARG25       0.0307
     21  CG        60.8960   80.7070   -4.4810 C.3    25  ARG25       0.0489
     22  CD        60.9760   82.0140   -3.6830 C.3    25  ARG25       0.2205
     23  NE        60.8300   81.7830   -2.2470 N.pl3  25  ARG25      -0.0865
     24  CZ        61.7400   81.1980   -1.4670 C.cat  25  ARG25       0.5346
     25  NH1       62.8970   80.7750   -1.9640 N.pl3  25  ARG25       0.1354
     26  NH2       61.4790   81.0210   -0.1780 N.pl3  25  ARG25       0.1354
     27  N         71.1770   71.9420   -6.0500 N.3    47  ASP47      -0.1239
     28  CA        69.8780   72.1070   -5.4010 C.3    47  ASP47       0.1674
     29  C         68.7530   72.5460   -6.3500 C.2    47  ASP47       0.2266
     30  O         67.6330   72.0300   -6.2720 O.2    47  ASP47      -0.2867
     31  CB        69.9740   73.0880   -4.2240 C.3    47  ASP47       0.1410
     32  CG        70.5600   72.4430   -2.9680 C.2    47  ASP47       0.3668
     33  OD1       70.5810   73.0490   -1.8940 O.co2  47  ASP47      -0.2456
     34  OD2       71.0350   71.2130   -3.1010 O.co2  47  ASP47      -0.2456
     35  N         69.9080   67.5450   -1.3120 N.3    90  ASN90      -0.1225
     36  CA        70.4080   68.3570   -0.2060 C.3    90  ASN90       0.1785
     37  C         69.5310   69.5770    0.0790 C.2    90  ASN90       0.2598
     38  O         69.6260   70.1920    1.1450 O.2    90  ASN90      -0.2718
     39  CB        71.8390   68.8160   -0.5380 C.3    90  ASN90       0.1169
     40  CG        72.2960   70.0060    0.3050 C.2    90  ASN90       0.2627
     41  OD1       72.1820   71.1660   -0.1130 O.2    90  ASN90      -0.2716
     42  ND2       72.8100   69.7250    1.4950 N.am   90  ASN90      -0.0877
     43  N         68.6560   69.8960   -0.8680 N.am   91  SER91      -0.1938
     44  CA        67.8030   71.0780   -0.7870 C.3    91  SER91       0.2055
     45  C         66.6740   71.1520    0.2470 C.2    91  SER91       0.2644
     46  O         65.5900   70.5900    0.0560 O.2    91  SER91      -0.2714
     47  CB        67.2300   71.3620   -2.1790 C.3    91  SER91       0.2130
     48  OG        66.5640   72.6010   -2.2150 O.3    91  SER91      -0.2179
     49  N         66.9240   71.8740    1.3350 N.am   92  GLY92      -0.1939
     50  CA        65.8930   72.0390    2.3400 C.3    92  GLY92       0.2014
     51  C         64.7750   72.8810    1.7410 C.2    92  GLY92       0.2639
     52  O         63.5930   72.6500    2.0000 O.2    92  GLY92      -0.2714
     53  N         65.1500   73.8600    0.9230 N.am   93  THR93      -0.1950
     54  CA        64.1770   74.7370    0.2800 C.3    93  THR93       0.1897
     55  C         63.1890   73.9210   -0.5600 C.2    93  THR93       0.2313
     56  O         61.9740   74.1350   -0.4970 O.2    93  THR93      -0.2863
     57  CB        64.8800   75.7700   -0.6320 C.3    93  THR93       0.1794
     58  OG1       65.7460   76.5910    0.1610 O.3    93  THR93      -0.2208
     59  CG2       63.8620   76.6590   -1.3310 C.3    93  THR93       0.0378
     60  N         60.7520   71.6650    1.7150 N.3    96  ARG96      -0.1245
     61  CA        59.8200   72.4540    2.5050 C.3    96  ARG96       0.1563
     62  C         58.8060   73.2200    1.6570 C.2    96  ARG96       0.2260
     63  O         57.6130   73.1670    1.9400 O.2    96  ARG96      -0.2867
     64  CB        60.5800   73.4050    3.4360 C.3    96  ARG96       0.0307
     65  CG        61.4700   72.6720    4.4530 C.3    96  ARG96       0.0489
     66  CD        61.5600   73.4430    5.7610 C.3    96  ARG96       0.2205
     67  NE        62.2890   72.7360    6.8130 N.pl3  96  ARG96      -0.0865
     68  CZ        63.5650   72.9510    7.1260 C.cat  96  ARG96       0.5346
     69  NH1       64.2770   73.8570    6.4630 N.pl3  96  ARG96       0.1354
     70  NH2       64.1250   72.2770    8.1240 N.pl3  96  ARG96       0.1354
     71  N         67.2100   67.2230    9.1690 N.3   120  ARG120     -0.1245
     72  CA        66.5210   68.4810    9.4100 C.3   120  ARG120      0.1563
     73  C         65.0180   68.3070    9.6100 C.2   120  ARG120      0.2260
     74  O         64.3530   67.5760    8.8700 O.2   120  ARG120     -0.2867
     75  CB        66.8290   69.4430    8.2630 C.3   120  ARG120      0.0307
     76  CG        68.3350   69.6410    8.0830 C.3   120  ARG120      0.0489
     77  CD        68.6810   70.3350    6.7850 C.3   120  ARG120      0.2205
     78  NE        68.3170   71.7470    6.8090 N.pl3 120  ARG120     -0.0865
     79  CZ        68.4080   72.5560    5.7600 C.cat 120  ARG120      0.5346
     80  NH1       68.8490   72.0890    4.6000 N.pl3 120  ARG120      0.1354
     81  NH2       68.0650   73.8320    5.8720 N.pl3 120  ARG120      0.1354
     82  N         58.0180   71.8740   11.4870 N.3   124  ARG124     -0.1245
     83  CA        57.7250   73.2940   11.3490 C.3   124  ARG124      0.1563
     84  C         56.8200   73.5190   10.1470 C.2   124  ARG124      0.2260
     85  O         56.1310   74.5320   10.0620 O.2   124  ARG124     -0.2867
     86  CB        59.0260   74.0850   11.1770 C.3   124  ARG124      0.0307
     87  CG        59.9340   73.5420   10.0770 C.3   124  ARG124      0.0489
     88  CD        61.2440   74.3000   10.0230 C.3   124  ARG124      0.2205
     89  NE        61.8960   74.3380   11.3310 N.pl3 124  ARG124     -0.0865
     90  CZ        62.8870   75.1660   11.6360 C.cat 124  ARG124      0.5346
     91  NH1       63.3390   76.0160   10.7230 N.pl3 124  ARG124      0.1354
     92  NH2       63.4090   75.1630   12.8560 N.pl3 124  ARG124      0.1354
     93  N         61.4440   82.3310   12.6830 N.3   165  ALA165     -0.1231
     94  CA        61.6650   83.2600   11.5850 C.3   165  ALA165      0.1694
     95  C         62.0860   82.5190   10.3150 C.2   165  ALA165      0.2593
     96  O         63.2110   82.6840    9.8350 O.2   165  ALA165     -0.2718
     97  CB        62.7290   84.2750   11.9770 C.3   165  ALA165      0.0304
     98  N         61.1770   81.7130    9.7670 N.am  166  SER166     -0.1938
     99  CA        61.4770   80.9410    8.5660 C.3   166  SER166      0.2055
    100  C         60.7910   81.4630    7.3070 C.2   166  SER166      0.2643
    101  O         59.5760   81.6740    7.2860 O.2   166  SER166     -0.2714
    102  CB        61.0820   79.4750    8.7720 C.3   166  SER166      0.2130
    103  OG        61.2690   78.7200    7.5850 O.3   166  SER166     -0.2179
    104  N         61.5770   81.6790    6.2590 N.am  167  ALA167     -0.1963
    105  CA        61.0160   82.1330    5.0000 C.3   167  ALA167      0.1728
    106  C         60.4420   80.8860    4.3180 C.2   167  ALA167      0.2616
    107  O         59.4460   80.9610    3.6060 O.2   167  ALA167     -0.2715
    108  CB        62.0930   82.7610    4.1370 C.3   167  ALA167      0.0334
    109  N         61.0700   79.7390    4.5590 N.am  168  GLN168     -0.1977
    110  CA        60.6220   78.4880    3.9630 C.3   168  GLN168      0.1601
    111  C         59.2260   78.0830    4.4280 C.2   168  GLN168      0.2287
    112  O         58.3680   77.7640    3.6010 O.2   168  GLN168     -0.2864
    113  CB        61.6390   77.3720    4.2350 C.3   168  GLN168      0.0394
    114  CG        62.8010   77.3760    3.2370 C.3   168  GLN168      0.0908
    115  CD        63.8790   76.3410    3.5340 C.2   168  GLN168      0.2608
    116  OE1       63.6230   75.3110    4.1610 O.2   168  GLN168     -0.2717
    117  NE2       65.0890   76.6050    3.0600 N.am  168  GLN168     -0.0878
    118  N         63.2400   86.8290    4.1400 N.3   193  ARG193     -0.1245
    119  CA        63.2510   87.1340    2.7070 C.3   193  ARG193      0.1563
    120  C         61.8570   86.9640    2.1110 C.2   193  ARG193      0.2260
    121  O         61.1840   85.9550    2.3300 O.2   193  ARG193     -0.2867
    122  CB        64.2730   86.2770    1.9400 C.3   193  ARG193      0.0307
    123  CG        64.1380   84.7880    2.1260 C.3   193  ARG193      0.0489
    124  CD        65.3980   84.2640    2.7800 C.3   193  ARG193      0.2205
    125  NE        66.3360   83.7540    1.8030 N.pl3 193  ARG193     -0.0865
    126  CZ        67.6040   83.4660    2.0610 C.cat 193  ARG193      0.5346
    127  NH1       68.3690   82.9920    1.0930 N.pl3 193  ARG193      0.1354
    128  NH2       68.1130   83.6690    3.2670 N.pl3 193  ARG193      0.1354
    129  N         70.9670   84.9970    7.9380 N.3   311  ILE311     -0.1231
    130  CA        71.2590   83.6870    8.5450 C.3   311  ILE311      0.1692
    131  C         72.3110   82.8920    7.8040 C.2   311  ILE311      0.2592
    132  O         73.1960   82.3150    8.4320 O.2   311  ILE311     -0.2718
    133  CB        70.0340   82.7150    8.6650 C.3   311  ILE311      0.0266
    134  CG1       68.7780   83.3370    8.0770 C.3   311  ILE311      0.0019
    135  CG2       69.8860   82.2460   10.1140 C.3   311  ILE311      0.0020
    136  CD1       68.6670   83.1210    6.5890 C.3   311  ILE311      0.0001
    137  N         72.2110   82.8490    6.4790 N.am  312  ASP312     -0.1974
    138  CA        73.1610   82.0870    5.6760 C.3   312  ASP312      0.1709
    139  C         74.5350   82.7340    5.5460 C.2   312  ASP312      0.2293
    140  O         75.4810   82.0850    5.0980 O.2   312  ASP312     -0.2864
    141  CB        72.5790   81.8080    4.2890 C.3   312  ASP312      0.1436
    142  CG        71.2380   81.0950    4.3560 C.2   312  ASP312      0.3671
    143  OD1       71.0900   80.1920    5.2050 O.co2 312  ASP312     -0.2456
    144  OD2       70.3340   81.4320    3.5600 O.co2 312  ASP312     -0.2456
    145  N         68.6130   79.1520   14.9300 N.3   335  GLU335     -0.1245
    146  CA        68.2570   78.5380   13.6500 C.3   335  GLU335      0.1567
    147  C         69.4570   77.9540   12.8890 C.2   335  GLU335      0.2260
    148  O         69.2840   77.1280   11.9880 O.2   335  GLU335     -0.2867
    149  CB        67.5310   79.5540   12.7580 C.3   335  GLU335      0.0388
    150  CG        66.0530   79.6640   13.0450 C.3   335  GLU335      0.1160
    151  CD        65.3040   78.3920   12.6790 C.2   335  GLU335      0.3649
    152  OE1       65.2390   78.0640   11.4730 O.co2 335  GLU335     -0.2457
    153  OE2       64.7910   77.7150   13.5960 O.co2 335  GLU335     -0.2457
    154  N         69.9800   74.0790   12.7870 N.3   338  VAL338     -0.1231
    155  CA        69.1210   73.2370   11.9690 C.3   338  VAL338      0.1692
    156  C         69.3340   73.3340   10.4470 C.2   338  VAL338      0.2592
    157  O         68.4990   72.8820    9.6640 O.2   338  VAL338     -0.2718
    158  CB        67.6340   73.5110   12.3320 C.3   338  VAL338      0.0266
    159  CG1       67.2240   74.9150   11.9120 C.3   338  VAL338      0.0020
    160  CG2       66.7630   72.4930   11.6940 C.3   338  VAL338      0.0020
    161  N         70.4650   73.8940   10.0300 N.am  339  LYS339     -0.1966
    162  CA        70.7710   74.0370    8.6030 C.3   339  LYS339      0.1728
    163  C         71.4660   72.8000    8.0300 C.2   339  LYS339      0.2616
    164  O         71.4920   71.7480    8.6670 O.2   339  LYS339     -0.2715
    165  CB        71.6600   75.2640    8.3860 C.3   339  LYS339      0.0311
    166  CG        71.0450   76.5710    8.8570 C.3   339  LYS339      0.0038
    167  CD        69.8040   76.9350    8.0550 C.3   339  LYS339      0.0206
    168  CE        69.2490   78.2870    8.4760 C.3   339  LYS339      0.1093
    169  NZ        68.0090   78.6420    7.7240 N.3   339  LYS339     -0.1314
    170  N         72.0140   72.9340    6.8220 N.am  340  GLU340     -0.1977
    171  CA        72.7330   71.8450    6.1580 C.3   340  GLU340      0.1602
    172  C         73.5120   71.0750    7.2230 C.2   340  GLU340      0.2287
    173  O         73.5510   69.8460    7.2210 O.2   340  GLU340     -0.2864
    174  CB        73.7150   72.4040    5.1240 C.3   340  GLU340      0.0415
    175  CG        73.3690   72.1390    3.6620 C.3   340  GLU340      0.1163
    176  CD        72.1690   72.9270    3.1930 C.2   340  GLU340      0.3649
    177  OE1       71.1100   72.8070    3.8400 O.co2 340  GLU340     -0.2457
    178  OE2       72.2760   73.6580    2.1810 O.co2 340  GLU340     -0.2457
    179  N         75.4600   74.9590   11.8450 N.3   343  ARG343     -0.1245
    180  CA        76.4000   76.0050   11.4860 C.3   343  ARG343      0.1563
    181  C         76.9810   76.7920   12.6460 C.2   343  ARG343      0.2260
    182  O         77.7400   77.7370   12.4470 O.2   343  ARG343     -0.2867
    183  CB        75.7790   76.9270   10.4370 C.3   343  ARG343      0.0307
    184  CG        75.7720   76.2840    9.0560 C.3   343  ARG343      0.0489
    185  CD        74.9150   77.0370    8.0870 C.3   343  ARG343      0.2205
    186  NE        74.9610   76.4390    6.7560 N.pl3 343  ARG343     -0.0865
    187  CZ        74.1300   76.7600    5.7700 C.cat 343  ARG343      0.5346
    188  NH1       73.1870   77.6720    5.9710 N.pl3 343  ARG343      0.1354
    189  NH2       74.2450   76.1800    4.5830 N.pl3 343  ARG343      0.1354
    190  N         77.6980   73.4080    1.5950 N.3   384  HIS384     -0.1226
    191  CA        78.3860   74.3170    0.6770 C.3   384  HIS384      0.1752
    192  C         78.9900   75.5660    1.3330 C.2   384  HIS384      0.2595
    193  O         80.0880   75.9890    0.9710 O.2   384  HIS384     -0.2718
    194  CB        77.4400   74.7530   -0.4480 C.3   384  HIS384      0.0759
    195  CG        76.2540   75.5460    0.0190 C.ar  384  HIS384      0.0818
    196  ND1       75.4470   75.1400    1.0610 N.ar  384  HIS384     -0.2268
    197  CD2       75.7100   76.6960   -0.4490 C.ar  384  HIS384      0.1154
    198  CE1       74.4550   76.0020    1.2120 C.ar  384  HIS384      0.1986
    199  NE2       74.5920   76.9560    0.3070 N.ar  384  HIS384     -0.2212
    200  N         78.2840   76.1520    2.2970 N.am  385  ARG385     -0.1980
    201  CA        78.7750   77.3630    2.9540 C.3   385  ARG385      0.1597
    202  C         79.9830   77.1020    3.8590 C.2   385  ARG385      0.2287
    203  O         80.8120   77.9860    4.0690 O.2   385  ARG385     -0.2864
    204  CB        77.6410   78.0430    3.7380 C.3   385  ARG385      0.0334
    205  CG        76.3090   78.0530    2.9840 C.3   385  ARG385      0.0492
    206  CD        75.3940   79.2190    3.3770 C.3   385  ARG385      0.2205
    207  NE        75.5060   80.2830    2.3880 N.pl3 385  ARG385     -0.0865
    208  CZ        74.7920   80.3590    1.2690 C.cat 385  ARG385      0.5346
    209  NH1       73.8750   79.4460    0.9780 N.pl3 385  ARG385      0.1354
    210  NH2       75.0410   81.3280    0.4090 N.pl3 385  ARG385      0.1354
@<TRIPOS>BOND
     1    19    18    2
     2    18    17    1
     3    17    16    1
     4    17    20    1
     5    29    30    2
     6    29    28    1
     7    27    28    1
     8    20    21    1
     9     1     2    1
    10    28    31    1
    11     4     3    2
    12     2     3    1
    13     2     5    1
    14     3    10   am
    15    13    12    2
    16    12    11    1
    17    21    22    1
    18    31    32    1
    19     5     6    1
    20     6     7    1
    21    10    11    1
    22    22    23    1
    23    11    14    1
    24     7     8    1
    25    34    32   ar
    26    32    33   ar
    27    14    15    1
    28    23    24    2
    29    48    47    1
    30    47    44    1
    31     8     9    1
    32    25    24    1
    33    24    26    1
    34    59    57    1
    35    35    36    1
    36    43    44    1
    37    43    37   am
    38    44    45    1
    39    57    58    1
    40    57    54    1
    41    55    56    2
    42    55    54    1
    43    39    36    1
    44    39    40    1
    45   197   195   ar
    46   197   199   ar
    47   194   195    1
    48   194   191    1
    49    36    37    1
    50    41    40    2
    51   195   196   ar
    52    46    45    2
    53    37    38    2
    54    45    49   am
    55    54    53    1
    56    40    42   am
    57   199   198   ar
    58   210   208    1
    59   191   192    1
    60   191   190    1
    61    53    51   am
    62   193   192    2
    63   209   208    1
    64   196   198   ar
    65   127   126    1
    66   208   207    2
    67   192   200   am
    68    49    50    1
    69    62    63    2
    70    62    61    1
    71    60    61    1
    72    51    52    2
    73    51    50    1
    74   125   126    2
    75   125   124    1
    76   122   123    1
    77   122   119    1
    78   126   128    1
    79   120   121    2
    80   120   119    1
    81   123   124    1
    82   178   176   ar
    83   200   201    1
    84   207   206    1
    85    61    64    1
    86   119   118    1
    87   201   204    1
    88   201   202    1
    89   205   206    1
    90   205   204    1
    91   117   115   am
    92   176   175    1
    93   176   177   ar
    94   114   115    1
    95   114   113    1
    96    64    65    1
    97   115   116    2
    98   144   142   ar
    99   112   111    2
   100   107   106    2
   101   175   174    1
   102   202   203    2
   103   110   113    1
   104   110   111    1
   105   110   109    1
   106   108   105    1
   107   141   142    1
   108   141   138    1
   109   106   109   am
   110   106   105    1
   111   142   143   ar
   112    65    66    1
   113   189   187    1
   114    80    79    1
   115   105   104    1
   116   140   139    2
   117   174   171    1
   118   139   138    1
   119   138   137    1
   120    79    81    1
   121    79    78    2
   122    66    67    1
   123   187   188    1
   124   187   186    2
   125   171   170    1
   126   171   172    1
   127   104   100   am
   128    69    68    1
   129   137   131   am
   130   136   134    1
   131   186   185    1
   132    77    78    1
   133    77    76    1
   134    67    68    2
   135   170   163   am
   136    68    70    1
   137   173   172    2
   138   101   100    2
   139   100    99    1
   140   103   102    1
   141   169   168    1
   142   131   132    2
   143   131   130    1
   144   129   130    1
   145   163   162    1
   146   163   164    2
   147   167   168    1
   148   167   166    1
   149   134   133    1
   150    76    75    1
   151   185   184    1
   152    75    72    1
   153   165   162    1
   154   165   166    1
   155   130   133    1
   156    99   102    1
   157    99    98    1
   158   162   161    1
   159   133   135    1
   160    74    73    2
   161   184   183    1
   162    71    72    1
   163    72    73    1
   164   157   156    2
   165    98    95   am
   166    96    95    2
   167    88    87    1
   168    88    89    1
   169   161   156   am
   170    85    84    2
   171    87    86    1
   172    84    83    1
   173    95    94    1
   174   183   180    1
   175   156   155    1
   176    91    90    1
   177    86    83    1
   178    89    90    2
   179    83    82    1
   180   152   151   ar
   181   180   179    1
   182   180   181    1
   183    94    97    1
   184    94    93    1
   185    90    92    1
   186   160   158    1
   187   159   158    1
   188   155   158    1
   189   155   154    1
   190   148   147    2
   191   182   181    2
   192   151   150    1
   193   151   153   ar
   194   149   150    1
   195   149   146    1
   196   147   146    1
   197   146   145    1
