@<TRIPOS>MOLECULE
tmp/1rf6B01.pdb
 153 142 0 0 0
SMALL
GASTEIGER

@<TRIPOS>ATOM
      1  N         69.8300   81.3920   -5.5170 N.3    20  LYS20      -0.1231
      2  CA        69.2430   80.0820   -5.2790 C.3    20  LYS20       0.1693
      3  C         67.7580   80.1100   -4.9110 C.2    20  LYS20       0.2592
      4  O         66.9580   79.3460   -5.4610 O.2    20  LYS20      -0.2718
      5  CB        70.0380   79.3650   -4.1810 C.3    20  LYS20       0.0285
      6  CG        69.5480   77.9690   -3.8580 C.3    20  LYS20       0.0035
      7  CD        70.6630   77.1330   -3.2310 C.3    20  LYS20       0.0206
      8  CE        71.1560   77.7320   -1.9210 C.3    20  LYS20       0.1093
      9  NZ        70.0710   77.8420   -0.9060 N.3    20  LYS20      -0.1314
     10  N         67.3990   80.9820   -3.9770 N.am   21  SER21      -0.1952
     11  CA        66.0200   81.0920   -3.5270 C.3    21  SER21       0.1924
     12  C         65.0770   81.4800   -4.6620 C.2    21  SER21       0.2314
     13  O         64.0110   80.8890   -4.8170 O.2    21  SER21      -0.2863
     14  CB        65.9130   82.1200   -2.3980 C.3    21  SER21       0.2116
     15  OG        66.5760   81.6690   -1.2260 O.3    21  SER21      -0.2180
     16  N         62.1280   79.2010   -6.8030 N.3    25  ARG25      -0.1245
     17  CA        60.7820   79.7210   -6.9790 C.3    25  ARG25       0.1563
     18  C         60.3930   79.9170   -8.4450 C.2    25  ARG25       0.2260
     19  O         59.2200   79.7760   -8.8000 O.2    25  ARG25      -0.2867
     20  CB        60.6360   81.0330   -6.1900 C.3    25  ARG25       0.0307
     21  CG        60.7090   80.8350   -4.6580 C.3    25  ARG25       0.0489
     22  CD        60.9110   82.1650   -3.9200 C.3    25  ARG25       0.2205
     23  NE        60.7650   82.0710   -2.4640 N.pl3  25  ARG25      -0.0865
     24  CZ        61.5870   81.4180   -1.6410 C.cat  25  ARG25       0.5346
     25  NH1       62.6480   80.7720   -2.1020 N.pl3  25  ARG25       0.1354
     26  NH2       61.3460   81.4170   -0.3370 N.pl3  25  ARG25       0.1354
     27  N         65.0360   73.8270    0.9210 N.3    93  THR93      -0.1218
     28  CA        64.1000   74.7420    0.2620 C.3    93  THR93       0.1862
     29  C         63.1300   73.9280   -0.5930 C.2    93  THR93       0.2287
     30  O         61.9180   74.1620   -0.5750 O.2    93  THR93      -0.2866
     31  CB        64.8390   75.7430   -0.6510 C.3    93  THR93       0.1770
     32  OG1       65.6960   76.5660    0.1450 O.3    93  THR93      -0.2211
     33  CG2       63.8490   76.6210   -1.4070 C.3    93  THR93       0.0375
     34  N         60.6170   71.6570    1.6940 N.3    96  ARG96      -0.1231
     35  CA        59.6850   72.4480    2.4770 C.3    96  ARG96       0.1694
     36  C         58.7140   73.2320    1.6030 C.2    96  ARG96       0.2591
     37  O         57.5140   73.2220    1.8670 O.2    96  ARG96      -0.2718
     38  CB        60.4340   73.3770    3.4380 C.3    96  ARG96       0.0321
     39  CG        61.2800   72.6250    4.4790 C.3    96  ARG96       0.0489
     40  CD        61.2580   73.3410    5.8300 C.3    96  ARG96       0.2205
     41  NE        62.0590   72.6710    6.8570 N.pl3  96  ARG96      -0.0865
     42  CZ        63.3650   72.8560    7.0410 C.cat  96  ARG96       0.5346
     43  NH1       64.0460   73.6930    6.2660 N.pl3  96  ARG96       0.1354
     44  NH2       63.9900   72.2170    8.0220 N.pl3  96  ARG96       0.1354
     45  N         59.2090   73.8980    0.5620 N.am   97  LEU97      -0.1980
     46  CA        58.3060   74.6560   -0.3080 C.3    97  LEU97       0.1596
     47  C         57.4130   73.7160   -1.1060 C.2    97  LEU97       0.2287
     48  O         56.2070   73.9400   -1.2110 O.2    97  LEU97      -0.2864
     49  CB        59.0660   75.5510   -1.2990 C.3    97  LEU97       0.0297
     50  CG        60.1560   76.5300   -0.8460 C.3    97  LEU97       0.0022
     51  CD1       60.2090   77.6900   -1.8280 C.3    97  LEU97       0.0001
     52  CD2       59.8830   77.0480    0.5530 C.3    97  LEU97       0.0001
     53  N         67.2360   66.9300    9.2090 N.3   120  ARG120     -0.1245
     54  CA        66.5900   68.2110    9.4360 C.3   120  ARG120      0.1563
     55  C         65.0790   68.1190    9.6260 C.2   120  ARG120      0.2260
     56  O         64.3720   67.4730    8.8510 O.2   120  ARG120     -0.2867
     57  CB        66.9620   69.1520    8.2910 C.3   120  ARG120      0.0307
     58  CG        68.4800   69.2800    8.1490 C.3   120  ARG120      0.0489
     59  CD        68.8730   70.0810    6.9440 C.3   120  ARG120      0.2205
     60  NE        68.3720   71.4430    7.0230 N.pl3 120  ARG120     -0.0865
     61  CZ        68.3150   72.2680    5.9850 C.cat 120  ARG120      0.5346
     62  NH1       68.7290   71.8530    4.7910 N.pl3 120  ARG120      0.1354
     63  NH2       67.8510   73.5050    6.1410 N.pl3 120  ARG120      0.1354
     64  N         58.0660   71.8780   11.4220 N.3   124  ARG124     -0.1245
     65  CA        57.7620   73.2920   11.2480 C.3   124  ARG124      0.1563
     66  C         56.8390   73.5440   10.0540 C.2   124  ARG124      0.2260
     67  O         56.1640   74.5720    9.9890 O.2   124  ARG124     -0.2867
     68  CB        59.0610   74.0720   11.0660 C.3   124  ARG124      0.0307
     69  CG        59.9360   73.5350    9.9400 C.3   124  ARG124      0.0489
     70  CD        61.2080   74.3290    9.8520 C.3   124  ARG124      0.2205
     71  NE        61.9260   74.2940   11.1200 N.pl3 124  ARG124     -0.0865
     72  CZ        62.8890   75.1450   11.4530 C.cat 124  ARG124      0.5346
     73  NH1       63.2500   76.0970   10.6060 N.pl3 124  ARG124      0.1354
     74  NH2       63.4750   75.0520   12.6380 N.pl3 124  ARG124      0.1354
     75  N         61.5060   82.3890   12.5790 N.3   165  ALA165     -0.1231
     76  CA        61.7120   83.3040   11.4600 C.3   165  ALA165      0.1694
     77  C         62.0950   82.5570   10.1820 C.2   165  ALA165      0.2593
     78  O         63.1830   82.7520    9.6430 O.2   165  ALA165     -0.2718
     79  CB        62.7880   84.3190   11.8130 C.3   165  ALA165      0.0304
     80  N         61.1870   81.7190    9.6920 N.am  166  SER166     -0.1938
     81  CA        61.4430   80.9360    8.4870 C.3   166  SER166      0.2055
     82  C         60.7260   81.4660    7.2400 C.2   166  SER166      0.2643
     83  O         59.5100   81.6450    7.2310 O.2   166  SER166     -0.2714
     84  CB        61.0310   79.4780    8.7230 C.3   166  SER166      0.2130
     85  OG        61.1480   78.7090    7.5380 O.3   166  SER166     -0.2179
     86  N         61.4880   81.7210    6.1850 N.am  167  ALA167     -0.1963
     87  CA        60.8800   82.1890    4.9520 C.3   167  ALA167      0.1728
     88  C         60.2860   80.9650    4.2510 C.2   167  ALA167      0.2616
     89  O         59.3120   81.0710    3.5060 O.2   167  ALA167     -0.2715
     90  CB        61.9240   82.8490    4.0700 C.3   167  ALA167      0.0334
     91  N         60.8790   79.8010    4.5080 N.am  168  GLN168     -0.1977
     92  CA        60.4240   78.5560    3.9030 C.3   168  GLN168      0.1601
     93  C         59.0340   78.1370    4.3800 C.2   168  GLN168      0.2287
     94  O         58.1770   77.7830    3.5660 O.2   168  GLN168     -0.2864
     95  CB        61.4300   77.4310    4.1790 C.3   168  GLN168      0.0394
     96  CG        62.6860   77.4750    3.3070 C.3   168  GLN168      0.0908
     97  CD        63.6450   76.3310    3.6040 C.2   168  GLN168      0.2608
     98  OE1       63.2820   75.3640    4.2770 O.2   168  GLN168     -0.2717
     99  NE2       64.8760   76.4310    3.0950 N.am  168  GLN168     -0.0878
    100  N         63.1760   86.6810    4.0760 N.3   193  ARG193     -0.1245
    101  CA        63.2520   86.9560    2.6400 C.3   193  ARG193      0.1563
    102  C         61.8580   86.8890    2.0310 C.2   193  ARG193      0.2260
    103  O         61.1230   85.9220    2.2260 O.2   193  ARG193     -0.2867
    104  CB        64.2030   85.9830    1.9400 C.3   193  ARG193      0.0307
    105  CG        64.1020   84.5710    2.4340 C.3   193  ARG193      0.0489
    106  CD        65.4640   84.1190    2.9340 C.3   193  ARG193      0.2205
    107  NE        66.2580   83.6430    1.8220 N.pl3 193  ARG193     -0.0865
    108  CZ        67.5740   83.4860    1.8330 C.cat 193  ARG193      0.5346
    109  NH1       68.1730   83.0280    0.7420 N.pl3 193  ARG193      0.1354
    110  NH2       68.2900   83.8090    2.9040 N.pl3 193  ARG193      0.1354
    111  N         71.0110   85.0480    7.6710 N.3   311  ILE311     -0.1231
    112  CA        71.1060   83.7130    8.2480 C.3   311  ILE311      0.1692
    113  C         72.1070   82.7830    7.5650 C.2   311  ILE311      0.2592
    114  O         72.8270   82.0550    8.2470 O.2   311  ILE311     -0.2718
    115  CB        69.7060   83.0170    8.3050 C.3   311  ILE311      0.0266
    116  CG1       69.8240   81.6480    8.9800 C.3   311  ILE311      0.0019
    117  CG2       69.1380   82.8340    6.8980 C.3   311  ILE311      0.0020
    118  CD1       70.2960   81.6940   10.4190 C.3   311  ILE311      0.0001
    119  N         72.1660   82.8010    6.2340 N.am  312  ASP312     -0.1974
    120  CA        73.0960   81.9320    5.5180 C.3   312  ASP312      0.1709
    121  C         74.5070   82.5030    5.3900 C.2   312  ASP312      0.2293
    122  O         75.4270   81.7980    4.9790 O.2   312  ASP312     -0.2864
    123  CB        72.5620   81.5970    4.1210 C.3   312  ASP312      0.1436
    124  CG        71.2670   80.8140    4.1620 C.2   312  ASP312      0.3671
    125  OD1       70.9640   80.2060    5.2120 O.co2 312  ASP312     -0.2456
    126  OD2       70.5580   80.7910    3.1350 O.co2 312  ASP312     -0.2456
    127  N         68.6750   78.9940   14.7690 N.3   335  GLU335     -0.1245
    128  CA        68.2930   78.3600   13.5140 C.3   335  GLU335      0.1567
    129  C         69.4810   77.7250   12.7900 C.2   335  GLU335      0.2260
    130  O         69.3020   76.8150   11.9830 O.2   335  GLU335     -0.2867
    131  CB        67.6020   79.3750   12.6000 C.3   335  GLU335      0.0388
    132  CG        66.1190   79.4960   12.8650 C.3   335  GLU335      0.1160
    133  CD        65.3690   78.2440   12.4500 C.2   335  GLU335      0.3649
    134  OE1       65.2840   77.9860   11.2280 O.co2 335  GLU335     -0.2457
    135  OE2       64.8740   77.5140   13.3360 O.co2 335  GLU335     -0.2457
    136  N         70.5420   73.6650    9.9470 N.3   339  LYS339     -0.1231
    137  CA        70.8570   73.7800    8.5230 C.3   339  LYS339      0.1693
    138  C         71.5390   72.5220    7.9740 C.2   339  LYS339      0.2591
    139  O         71.4910   71.4630    8.6040 O.2   339  LYS339     -0.2718
    140  CB        71.7330   75.0110    8.2870 C.3   339  LYS339      0.0285
    141  CG        71.0800   76.3270    8.7020 C.3   339  LYS339      0.0035
    142  CD        69.7940   76.6100    7.9100 C.3   339  LYS339      0.0206
    143  CE        69.2030   77.9800    8.2670 C.3   339  LYS339      0.1093
    144  NZ        67.8880   78.2420    7.5930 N.3   339  LYS339     -0.1314
    145  N         72.1620   72.6340    6.8010 N.am  340  GLU340     -0.1979
    146  CA        72.8350   71.4930    6.1870 C.3   340  GLU340      0.1602
    147  C         73.6740   70.7710    7.2320 C.2   340  GLU340      0.2287
    148  O         73.8330   69.5530    7.1890 O.2   340  GLU340     -0.2864
    149  CB        73.6880   71.9470    4.9960 C.3   340  GLU340      0.0415
    150  CG        72.8470   72.3120    3.7570 C.3   340  GLU340      0.1163
    151  CD        72.3710   73.7650    3.7440 C.2   340  GLU340      0.3649
    152  OE1       72.0890   74.3290    4.8270 O.co2 340  GLU340     -0.2457
    153  OE2       72.2660   74.3420    2.6390 O.co2 340  GLU340     -0.2457
@<TRIPOS>BOND
     1    19    18    2
     2    18    17    1
     3    17    16    1
     4    17    20    1
     5    20    21    1
     6     1     2    1
     7     4     3    2
     8     2     3    1
     9     2     5    1
    10     3    10   am
    11    13    12    2
    12    12    11    1
    13    21    22    1
    14     5     6    1
    15    10    11    1
    16    22    23    1
    17     6     7    1
    18    11    14    1
    19     7     8    1
    20    23    24    2
    21    14    15    1
    22    25    24    1
    23     8     9    1
    24    51    50    1
    25    24    26    1
    26    33    31    1
    27    49    50    1
    28    49    46    1
    29    48    47    2
    30    47    46    1
    31    50    52    1
    32    31    32    1
    33    31    28    1
    34    29    30    2
    35    29    28    1
    36    46    45    1
    37    28    27    1
    38    45    36   am
    39   109   108    1
    40    36    37    2
    41    36    35    1
    42    34    35    1
    43   107   108    2
    44   107   106    1
    45   108   110    1
    46   104   105    1
    47   104   101    1
    48   102   103    2
    49   102   101    1
    50   105   106    1
    51    35    38    1
    52   153   151   ar
    53   101   100    1
    54    99    97   am
    55   126   124   ar
    56    96    97    1
    57    96    95    1
    58    38    39    1
    59    89    88    2
    60    94    93    2
    61    97    98    2
    62   151   150    1
    63   151   152   ar
    64   150   149    1
    65    92    95    1
    66    92    93    1
    67    92    91    1
    68    90    87    1
    69   123   124    1
    70   123   120    1
    71   124   125   ar
    72    88    91   am
    73    88    87    1
    74    39    40    1
    75    62    61    1
    76    87    86    1
    77   122   121    2
    78   149   146    1
    79   121   120    1
    80   120   119    1
    81    40    41    1
    82    61    63    1
    83    61    60    2
    84    86    82   am
    85   146   145    1
    86   146   147    1
    87   119   113   am
    88    43    42    1
    89   145   138   am
    90    41    42    2
    91   117   115    1
    92    59    60    1
    93    59    58    1
    94    42    44    1
    95   148   147    2
    96    83    82    2
    97    82    81    1
    98    85    84    1
    99   113   114    2
   100   113   112    1
   101   144   143    1
   102   111   112    1
   103   142   143    1
   104   142   141    1
   105   138   137    1
   106   138   139    2
   107    58    57    1
   108   112   115    1
   109   140   137    1
   110   140   141    1
   111    57    54    1
   112   115   116    1
   113    81    84    1
   114    81    80    1
   115   137   136    1
   116    56    55    2
   117   116   118    1
   118    53    54    1
   119    54    55    1
   120    78    77    2
   121    80    77   am
   122    70    69    1
   123    70    71    1
   124    69    68    1
   125    67    66    2
   126    66    65    1
   127    77    76    1
   128    73    72    1
   129    68    65    1
   130    71    72    2
   131   134   133   ar
   132    65    64    1
   133    72    74    1
   134    76    79    1
   135    76    75    1
   136   130   129    2
   137   133   132    1
   138   133   135   ar
   139   131   132    1
   140   131   128    1
   141   129   128    1
   142   128   127    1
