@<TRIPOS>MOLECULE
tmp/1rf6B00.pdb
 130 122 0 0 0
SMALL
GASTEIGER

@<TRIPOS>ATOM
      1  N         69.8300   81.3920   -5.5170 N.3    20  LYS20      -0.1245
      2  CA        69.2430   80.0820   -5.2790 C.3    20  LYS20       0.1561
      3  C         67.7580   80.1100   -4.9110 C.2    20  LYS20       0.2260
      4  O         66.9580   79.3460   -5.4610 O.2    20  LYS20      -0.2867
      5  CB        70.0380   79.3650   -4.1810 C.3    20  LYS20       0.0271
      6  CG        69.5480   77.9690   -3.8580 C.3    20  LYS20       0.0035
      7  CD        70.6630   77.1330   -3.2310 C.3    20  LYS20       0.0206
      8  CE        71.1560   77.7320   -1.9210 C.3    20  LYS20       0.1093
      9  NZ        70.0710   77.8420   -0.9060 N.3    20  LYS20      -0.1314
     10  N         64.7860   78.6390   -7.3370 N.3    24  HIS24      -0.1241
     11  CA        63.9050   77.5610   -6.8760 C.3    24  HIS24       0.1621
     12  C         62.4560   77.9640   -7.1550 C.2    24  HIS24       0.2264
     13  O         61.6580   77.1810   -7.6650 O.2    24  HIS24      -0.2867
     14  CB        64.0530   77.3460   -5.3650 C.3    24  HIS24       0.0745
     15  CG        65.1460   76.3970   -4.9770 C.ar   24  HIS24       0.0817
     16  ND1       66.0750   76.6970   -4.0040 N.ar   24  HIS24      -0.2268
     17  CD2       65.4000   75.1220   -5.3570 C.ar   24  HIS24       0.1154
     18  CE1       66.8510   75.6490   -3.7960 C.ar   24  HIS24       0.1986
     19  NE2       66.4620   74.6790   -4.6050 N.ar   24  HIS24      -0.2212
     20  N         70.9930   71.9010   -5.9120 N.3    47  ASP47      -0.1239
     21  CA        69.7120   72.0990   -5.2340 C.3    47  ASP47       0.1674
     22  C         68.6130   72.5160   -6.2060 C.2    47  ASP47       0.2266
     23  O         67.4890   72.0200   -6.1200 O.2    47  ASP47      -0.2867
     24  CB        69.8190   73.1470   -4.1170 C.3    47  ASP47       0.1410
     25  CG        70.3350   72.5610   -2.8100 C.2    47  ASP47       0.3668
     26  OD1       70.4260   73.2550   -1.7930 O.co2  47  ASP47      -0.2456
     27  OD2       70.6790   71.2800   -2.8330 O.co2  47  ASP47      -0.2456
     28  N         69.8260   67.4900   -1.3210 N.3    90  ASN90      -0.1225
     29  CA        70.3910   68.2500   -0.2050 C.3    90  ASN90       0.1785
     30  C         69.5600   69.5060    0.0810 C.2    90  ASN90       0.2598
     31  O         69.8050   70.2260    1.0520 O.2    90  ASN90      -0.2718
     32  CB        71.8250   68.6670   -0.5760 C.3    90  ASN90       0.1169
     33  CG        72.5840   69.2970    0.5860 C.2    90  ASN90       0.2627
     34  OD1       72.7320   70.5220    0.6640 O.2    90  ASN90      -0.2716
     35  ND2       73.0730   68.4580    1.4920 N.am   90  ASN90      -0.0877
     36  N         68.5610   69.7350   -0.7630 N.am   91  SER91      -0.1938
     37  CA        67.7160   70.9220   -0.6940 C.3    91  SER91       0.2055
     38  C         66.5420   70.9930    0.2810 C.2    91  SER91       0.2644
     39  O         65.4920   70.3990    0.0500 O.2    91  SER91      -0.2714
     40  CB        67.1970   71.2200   -2.1030 C.3    91  SER91       0.2130
     41  OG        66.5460   72.4640   -2.1490 O.3    91  SER91      -0.2179
     42  N         66.7170   71.7510    1.3570 N.am   92  GLY92      -0.1939
     43  CA        65.6400   71.9310    2.3150 C.3    92  GLY92       0.2014
     44  C         64.5910   72.8460    1.6970 C.2    92  GLY92       0.2639
     45  O         63.3900   72.6670    1.9040 O.2    92  GLY92      -0.2714
     46  N         65.0360   73.8270    0.9210 N.am   93  THR93      -0.1950
     47  CA        64.1000   74.7420    0.2620 C.3    93  THR93       0.1897
     48  C         63.1300   73.9280   -0.5930 C.2    93  THR93       0.2313
     49  O         61.9180   74.1620   -0.5750 O.2    93  THR93      -0.2863
     50  CB        64.8390   75.7430   -0.6510 C.3    93  THR93       0.1794
     51  OG1       65.6960   76.5660    0.1450 O.3    93  THR93      -0.2208
     52  CG2       63.8490   76.6210   -1.4070 C.3    93  THR93       0.0378
     53  N         67.2360   66.9300    9.2090 N.3   120  ARG120     -0.1245
     54  CA        66.5900   68.2110    9.4360 C.3   120  ARG120      0.1563
     55  C         65.0790   68.1190    9.6260 C.2   120  ARG120      0.2260
     56  O         64.3720   67.4730    8.8510 O.2   120  ARG120     -0.2867
     57  CB        66.9620   69.1520    8.2910 C.3   120  ARG120      0.0307
     58  CG        68.4800   69.2800    8.1490 C.3   120  ARG120      0.0489
     59  CD        68.8730   70.0810    6.9440 C.3   120  ARG120      0.2205
     60  NE        68.3720   71.4430    7.0230 N.pl3 120  ARG120     -0.0865
     61  CZ        68.3150   72.2680    5.9850 C.cat 120  ARG120      0.5346
     62  NH1       68.7290   71.8530    4.7910 N.pl3 120  ARG120      0.1354
     63  NH2       67.8510   73.5050    6.1410 N.pl3 120  ARG120      0.1354
     64  N         60.8790   79.8010    4.5080 N.3   168  GLN168     -0.1245
     65  CA        60.4240   78.5560    3.9030 C.3   168  GLN168      0.1566
     66  C         59.0340   78.1370    4.3800 C.2   168  GLN168      0.2260
     67  O         58.1770   77.7830    3.5660 O.2   168  GLN168     -0.2867
     68  CB        61.4300   77.4310    4.1790 C.3   168  GLN168      0.0367
     69  CG        62.6860   77.4750    3.3070 C.3   168  GLN168      0.0905
     70  CD        63.6450   76.3310    3.6040 C.2   168  GLN168      0.2608
     71  OE1       63.2820   75.3640    4.2770 O.2   168  GLN168     -0.2717
     72  NE2       64.8760   76.4310    3.0950 N.am  168  GLN168     -0.0878
     73  N         72.1660   82.8010    6.2340 N.3   312  ASP312     -0.1239
     74  CA        73.0960   81.9320    5.5180 C.3   312  ASP312      0.1674
     75  C         74.5070   82.5030    5.3900 C.2   312  ASP312      0.2266
     76  O         75.4270   81.7980    4.9790 O.2   312  ASP312     -0.2867
     77  CB        72.5620   81.5970    4.1210 C.3   312  ASP312      0.1410
     78  CG        71.2670   80.8140    4.1620 C.2   312  ASP312      0.3668
     79  OD1       70.9640   80.2060    5.2120 O.co2 312  ASP312     -0.2456
     80  OD2       70.5580   80.7910    3.1350 O.co2 312  ASP312     -0.2456
     81  N         70.5420   73.6650    9.9470 N.3   339  LYS339     -0.1231
     82  CA        70.8570   73.7800    8.5230 C.3   339  LYS339      0.1693
     83  C         71.5390   72.5220    7.9740 C.2   339  LYS339      0.2591
     84  O         71.4910   71.4630    8.6040 O.2   339  LYS339     -0.2718
     85  CB        71.7330   75.0110    8.2870 C.3   339  LYS339      0.0285
     86  CG        71.0800   76.3270    8.7020 C.3   339  LYS339      0.0035
     87  CD        69.7940   76.6100    7.9100 C.3   339  LYS339      0.0206
     88  CE        69.2030   77.9800    8.2670 C.3   339  LYS339      0.1093
     89  NZ        67.8880   78.2420    7.5930 N.3   339  LYS339     -0.1314
     90  N         72.1620   72.6340    6.8010 N.am  340  GLU340     -0.1979
     91  CA        72.8350   71.4930    6.1870 C.3   340  GLU340      0.1602
     92  C         73.6740   70.7710    7.2320 C.2   340  GLU340      0.2287
     93  O         73.8330   69.5530    7.1890 O.2   340  GLU340     -0.2864
     94  CB        73.6880   71.9470    4.9960 C.3   340  GLU340      0.0415
     95  CG        72.8470   72.3120    3.7570 C.3   340  GLU340      0.1163
     96  CD        72.3710   73.7650    3.7440 C.2   340  GLU340      0.3649
     97  OE1       72.0890   74.3290    4.8270 O.co2 340  GLU340     -0.2457
     98  OE2       72.2660   74.3420    2.6390 O.co2 340  GLU340     -0.2457
     99  N         75.4760   74.5440   11.9200 N.3   343  ARG343     -0.1245
    100  CA        76.4300   75.5940   11.5990 C.3   343  ARG343      0.1563
    101  C         77.0920   76.3300   12.7520 C.2   343  ARG343      0.2260
    102  O         78.0360   77.0880   12.5420 O.2   343  ARG343     -0.2867
    103  CB        75.8020   76.5740   10.6090 C.3   343  ARG343      0.0307
    104  CG        75.7190   75.9680    9.2170 C.3   343  ARG343      0.0489
    105  CD        74.9780   76.8410    8.2250 C.3   343  ARG343      0.2205
    106  NE        75.0690   76.2650    6.8900 N.pl3 343  ARG343     -0.0865
    107  CZ        74.5430   76.8070    5.7990 C.cat 343  ARG343      0.5346
    108  NH1       73.8770   77.9470    5.8820 N.pl3 343  ARG343      0.1354
    109  NH2       74.6960   76.2110    4.6230 N.pl3 343  ARG343      0.1354
    110  N         77.6350   72.9770    1.5990 N.3   384  HIS384     -0.1226
    111  CA        78.3630   73.8470    0.6840 C.3   384  HIS384      0.1752
    112  C         79.1000   75.0350    1.3150 C.2   384  HIS384      0.2595
    113  O         80.2640   75.2870    0.9910 O.2   384  HIS384     -0.2718
    114  CB        77.4150   74.3760   -0.3970 C.3   384  HIS384      0.0759
    115  CG        76.2330   75.1320    0.1370 C.ar  384  HIS384      0.0818
    116  ND1       75.4360   74.6520    1.1560 N.ar  384  HIS384     -0.2268
    117  CD2       75.6770   76.3040   -0.2520 C.ar  384  HIS384      0.1154
    118  CE1       74.4400   75.4940    1.3690 C.ar  384  HIS384      0.1986
    119  NE2       74.5630   76.5050    0.5270 N.ar  384  HIS384     -0.2212
    120  N         78.4410   75.7660    2.2080 N.am  385  ARG385     -0.1980
    121  CA        79.0800   76.9390    2.8010 C.3   385  ARG385      0.1597
    122  C         80.2350   76.6380    3.7540 C.2   385  ARG385      0.2287
    123  O         81.0910   77.4910    3.9770 O.2   385  ARG385     -0.2864
    124  CB        78.0300   77.8440    3.4600 C.3   385  ARG385      0.0334
    125  CG        76.9880   78.3210    2.4530 C.3   385  ARG385      0.0492
    126  CD        76.1760   79.5360    2.9040 C.3   385  ARG385      0.2205
    127  NE        74.9880   79.6740    2.0610 N.pl3 385  ARG385     -0.0865
    128  CZ        74.9910   80.0590    0.7850 C.cat 385  ARG385      0.5346
    129  NH1       76.1250   80.3790    0.1690 N.pl3 385  ARG385      0.1354
    130  NH2       73.8550   80.0720    0.1030 N.pl3 385  ARG385      0.1354
@<TRIPOS>BOND
     1    13    12    2
     2    10    11    1
     3    12    11    1
     4    11    14    1
     5    22    23    2
     6    22    21    1
     7    20    21    1
     8     1     2    1
     9     4     3    2
    10    14    15    1
    11    17    15   ar
    12    17    19   ar
    13     2     3    1
    14     2     5    1
    15    21    24    1
    16    15    16   ar
    17    19    18   ar
    18     5     6    1
    19    24    25    1
    20    16    18   ar
    21     6     7    1
    22     7     8    1
    23    27    25   ar
    24    25    26   ar
    25    41    40    1
    26    40    37    1
    27     8     9    1
    28    52    50    1
    29    28    29    1
    30    36    37    1
    31    36    30   am
    32    37    38    1
    33    50    51    1
    34    50    47    1
    35    48    49    2
    36    48    47    1
    37    32    29    1
    38    32    33    1
    39   114   115    1
    40   114   111    1
    41   117   115   ar
    42   117   119   ar
    43    29    30    1
    44    39    38    2
    45    30    31    2
    46   130   128    1
    47   115   116   ar
    48   129   128    1
    49    47    46    1
    50    38    42   am
    51   119   118   ar
    52    33    34    2
    53    33    35   am
    54   111   112    1
    55   111   110    1
    56   128   127    2
    57    46    44   am
    58   113   112    2
    59   116   118   ar
    60   112   120   am
    61    42    43    1
    62    44    45    2
    63    44    43    1
    64   127   126    1
    65   120   121    1
    66   125   126    1
    67   125   124    1
    68    98    96   ar
    69   121   124    1
    70   121   122    1
    71    72    70   am
    72    80    78   ar
    73    69    70    1
    74    69    68    1
    75    67    66    2
    76    70    71    2
    77    96    95    1
    78    96    97   ar
    79   122   123    2
    80    95    94    1
    81    65    68    1
    82    65    66    1
    83    65    64    1
    84    77    78    1
    85    77    74    1
    86    78    79   ar
    87   109   107    1
    88    62    61    1
    89    76    75    2
    90    94    91    1
    91    75    74    1
    92    74    73    1
    93   107   108    1
    94   107   106    2
    95    61    63    1
    96    61    60    2
    97    91    90    1
    98    91    92    1
    99    90    83   am
   100   106   105    1
   101    59    60    1
   102    59    58    1
   103    93    92    2
   104    89    88    1
   105    87    88    1
   106    87    86    1
   107    83    82    1
   108    83    84    2
   109    58    57    1
   110   105   104    1
   111    85    82    1
   112    85    86    1
   113    57    54    1
   114    82    81    1
   115    56    55    2
   116    53    54    1
   117   104   103    1
   118    54    55    1
   119   103   100    1
   120   100    99    1
   121   100   101    1
   122   102   101    2
