@<TRIPOS>MOLECULE
tmp/1rf9A01.pdb
 202 191 0 0 0
SMALL
GASTEIGER

@<TRIPOS>ATOM
      1  N         17.5220   33.4720   23.2960 N.3    19  TYR19      -0.1241
      2  CA        18.3620   34.6410   23.5230 C.3    19  TYR19       0.1605
      3  C         17.6730   35.7330   24.3340 C.2    19  TYR19       0.2264
      4  O         18.3250   36.6590   24.8110 O.2    19  TYR19      -0.2867
      5  CB        18.8590   35.1980   22.1850 C.3    19  TYR19       0.0534
      6  CG        19.8130   34.2530   21.4920 C.ar   19  TYR19      -0.0201
      7  CD1       21.0540   33.9560   22.0560 C.ar   19  TYR19      -0.0009
      8  CD2       19.4460   33.5970   20.3160 C.ar   19  TYR19      -0.0009
      9  CE1       21.9040   33.0260   21.4730 C.ar   19  TYR19       0.0417
     10  CE2       20.2900   32.6580   19.7250 C.ar   19  TYR19       0.0417
     11  CZ        21.5150   32.3790   20.3130 C.ar   19  TYR19       0.1957
     12  OH        22.3450   31.4350   19.7590 O.3    19  TYR19      -0.2866
     13  N         14.1280   32.8090   16.1960 N.3    49  ASN49      -0.1240
     14  CA        15.4570   32.6300   15.6240 C.3    49  ASN49       0.1653
     15  C         15.5380   31.7050   14.4100 C.2    49  ASN49       0.2266
     16  O         16.3840   30.8080   14.3570 O.2    49  ASN49      -0.2867
     17  CB        16.4120   32.1440   16.7220 C.3    49  ASN49       0.1155
     18  CG        16.4040   33.0520   17.9400 C.2    49  ASN49       0.2627
     19  OD1       15.8580   32.7070   18.9960 O.2    49  ASN49      -0.2716
     20  ND2       17.0000   34.2250   17.7970 N.am   49  ASN49      -0.0877
     21  N         24.8840   25.4660   16.1380 N.3    77  PHE77      -0.1227
     22  CA        24.3300   26.6780   16.7340 C.3    77  PHE77       0.1736
     23  C         23.0940   27.2150   16.0400 C.2    77  PHE77       0.2595
     24  O         22.8800   26.9980   14.8510 O.2    77  PHE77      -0.2718
     25  CB        25.3590   27.8150   16.7630 C.3    77  PHE77       0.0547
     26  CG        26.5690   27.5320   17.5980 C.ar   77  PHE77      -0.0202
     27  CD1       26.5040   26.6700   18.6890 C.ar   77  PHE77      -0.0042
     28  CD2       27.7730   28.1650   17.3160 C.ar   77  PHE77      -0.0042
     29  CE1       27.6210   26.4420   19.4880 C.ar   77  PHE77      -0.0003
     30  CE2       28.8960   27.9450   18.1100 C.ar   77  PHE77      -0.0003
     31  CZ        28.8170   27.0810   19.1970 C.ar   77  PHE77      -0.0000
     32  N         22.2910   27.9310   16.8140 N.am   78  ILE78      -0.1966
     33  CA        21.0840   28.5740   16.3210 C.3    78  ILE78       0.1712
     34  C         21.4090   30.0580   16.4630 C.2    78  ILE78       0.2458
     35  O         21.9330   30.4760   17.4920 O.2    78  ILE78      -0.2730
     36  CB        19.8720   28.2050   17.2020 C.3    78  ILE78       0.0289
     37  CG1       19.5040   26.7400   16.9660 C.3    78  ILE78       0.0022
     38  CG2       18.6950   29.1180   16.8940 C.3    78  ILE78       0.0023
     39  CD1       18.5630   26.1770   17.9830 C.3    78  ILE78       0.0001
     40  N         21.1170   30.8740   15.4380 N.am   79  PRO79      -0.2727
     41  CA        20.5040   30.5850   14.1380 C.3    79  PRO79       0.1402
     42  C         21.4400   29.8740   13.1680 C.2    79  PRO79       0.2269
     43  O         22.6600   29.8850   13.3360 O.2    79  PRO79      -0.2865
     44  CB        20.1170   31.9690   13.6390 C.3    79  PRO79       0.0296
     45  CG        21.2890   32.7790   14.0860 C.3    79  PRO79       0.0237
     46  CD        21.4880   32.2990   15.5200 C.3    79  PRO79       0.0939
     47  N         24.8870   31.0630   12.0080 N.3    82  ALA82      -0.1245
     48  CA        25.9500   30.9720   13.0000 C.3    82  ALA82       0.1562
     49  C         26.5110   29.5540   13.0450 C.2    82  ALA82       0.2260
     50  O         27.7240   29.3580   13.1140 O.2    82  ALA82      -0.2867
     51  CB        25.4180   31.3720   14.3700 C.3    82  ALA82       0.0290
     52  N         30.3730   28.3440   11.9970 N.3    86  TYR86      -0.1241
     53  CA        31.1560   27.6950   13.0500 C.3    86  TYR86       0.1605
     54  C         31.9720   26.5170   12.5160 C.2    86  TYR86       0.2264
     55  O         31.4400   25.6360   11.8380 O.2    86  TYR86      -0.2867
     56  CB        30.2210   27.2150   14.1600 C.3    86  TYR86       0.0534
     57  CG        30.9270   26.7230   15.4010 C.ar   86  TYR86      -0.0201
     58  CD1       30.8860   25.3750   15.7610 C.ar   86  TYR86      -0.0009
     59  CD2       31.6120   27.6090   16.2330 C.ar   86  TYR86      -0.0009
     60  CE1       31.5060   24.9200   16.9260 C.ar   86  TYR86       0.0417
     61  CE2       32.2360   27.1660   17.4020 C.ar   86  TYR86       0.0417
     62  CZ        32.1750   25.8210   17.7410 C.ar   86  TYR86       0.1957
     63  OH        32.7680   25.3800   18.9000 O.3    86  TYR86      -0.2866
     64  N         35.0260   25.2900   14.6170 N.3    88  PHE88      -0.1241
     65  CA        36.0140   24.8880   15.6160 C.3    88  PHE88       0.1605
     66  C         36.1350   23.3700   15.6530 C.2    88  PHE88       0.2264
     67  O         35.2160   22.6540   15.2560 O.2    88  PHE88      -0.2867
     68  CB        35.6320   25.4120   17.0020 C.3    88  PHE88       0.0534
     69  CG        36.0580   26.8320   17.2560 C.ar   88  PHE88      -0.0203
     70  CD1       36.9220   27.4860   16.3770 C.ar   88  PHE88      -0.0042
     71  CD2       35.6340   27.5040   18.4010 C.ar   88  PHE88      -0.0042
     72  CE1       37.3600   28.7890   16.6400 C.ar   88  PHE88      -0.0003
     73  CE2       36.0660   28.8080   18.6710 C.ar   88  PHE88      -0.0003
     74  CZ        36.9300   29.4490   17.7890 C.ar   88  PHE88      -0.0000
     75  N         34.3320   20.3390   17.9360 N.3    91  THR91      -0.1218
     76  CA        32.9080   20.5980   18.1310 C.3    91  THR91       0.1862
     77  C         32.0290   20.6430   16.8700 C.2    91  THR91       0.2287
     78  O         30.8140   20.4970   16.9670 O.2    91  THR91      -0.2866
     79  CB        32.6920   21.9050   18.9400 C.3    91  THR91       0.1770
     80  OG1       33.6200   22.9080   18.5030 O.3    91  THR91      -0.2211
     81  CG2       32.8990   21.6470   20.4300 C.3    91  THR91       0.0375
     82  N         34.7880   39.7670   22.2090 N.3   173  GLN173     -0.1231
     83  CA        34.0940   40.1300   20.9810 C.3   173  GLN173      0.1698
     84  C         33.3810   38.9300   20.3730 C.2   173  GLN173      0.2592
     85  O         32.5050   39.0860   19.5240 O.2   173  GLN173     -0.2718
     86  CB        35.0800   40.7190   19.9670 C.3   173  GLN173      0.0381
     87  CG        36.0020   41.7750   20.5580 C.3   173  GLN173      0.0905
     88  CD        35.2520   42.8240   21.3600 C.2   173  GLN173      0.2608
     89  OE1       35.6260   43.1420   22.4910 O.2   173  GLN173     -0.2717
     90  NE2       34.1920   43.3700   20.7770 N.am  173  GLN173     -0.0878
     91  N         33.7600   37.7330   20.8130 N.am  174  MET174     -0.1965
     92  CA        33.1540   36.5060   20.3100 C.3   174  MET174      0.1736
     93  C         31.9740   36.0720   21.1770 C.2   174  MET174      0.2617
     94  O         31.7260   34.8790   21.3510 O.2   174  MET174     -0.2715
     95  CB        34.1980   35.3870   20.2550 C.3   174  MET174      0.0427
     96  CG        35.2970   35.6100   19.2250 C.3   174  MET174      0.0599
     97  SD        36.6160   34.3670   19.2950 S.3   174  MET174     -0.1393
     98  CE        35.8490   33.0140   18.4010 C.3   174  MET174      0.0692
     99  N         31.2500   37.0470   21.7170 N.am  175  THR175     -0.1951
    100  CA        30.0860   36.7790   22.5600 C.3   175  THR175      0.1897
    101  C         29.5110   38.0610   23.1520 C.2   175  THR175      0.2313
    102  O         28.3420   38.1150   23.5300 O.2   175  THR175     -0.2863
    103  CB        30.4330   35.8210   23.7200 C.3   175  THR175      0.1794
    104  OG1       29.3090   35.7180   24.6030 O.3   175  THR175     -0.2208
    105  CG2       31.6410   36.3260   24.4940 C.3   175  THR175      0.0378
    106  N         30.2840   41.5000   21.6240 N.3   177  PRO177     -0.2116
    107  CA        30.8320   42.4780   20.6780 C.3   177  PRO177      0.1372
    108  C         30.5180   43.9350   20.9970 C.2   177  PRO177      0.2244
    109  O         29.3720   44.2850   21.2920 O.2   177  PRO177     -0.2868
    110  CB        30.2290   42.0360   19.3470 C.3   177  PRO177      0.0268
    111  CG        28.8940   41.5100   19.7600 C.3   177  PRO177      0.0207
    112  CD        29.2420   40.6830   20.9750 C.3   177  PRO177      0.0892
    113  N         32.6110   38.6860   15.0400 N.3   183  PHE183     -0.1241
    114  CA        33.0540   37.3030   15.2270 C.3   183  PHE183      0.1605
    115  C         34.1540   36.8320   14.2760 C.2   183  PHE183      0.2264
    116  O         35.2670   36.5190   14.7050 O.2   183  PHE183     -0.2867
    117  CB        31.8560   36.3560   15.1170 C.3   183  PHE183      0.0534
    118  CG        32.1820   34.9260   15.4470 C.ar  183  PHE183     -0.0203
    119  CD1       32.4920   34.5520   16.7510 C.ar  183  PHE183     -0.0042
    120  CD2       32.1910   33.9530   14.4520 C.ar  183  PHE183     -0.0042
    121  CE1       32.8080   33.2290   17.0610 C.ar  183  PHE183     -0.0003
    122  CE2       32.5060   32.6270   14.7510 C.ar  183  PHE183     -0.0003
    123  CZ        32.8150   32.2650   16.0590 C.ar  183  PHE183     -0.0000
    124  N         39.2530   26.6000   20.0920 N.3   234  LEU234     -0.1245
    125  CA        38.2960   25.9950   21.0150 C.3   234  LEU234      0.1561
    126  C         38.8960   25.8120   22.4080 C.2   234  LEU234      0.2260
    127  O         38.2330   26.0510   23.4210 O.2   234  LEU234     -0.2867
    128  CB        37.8240   24.6370   20.4840 C.3   234  LEU234      0.0270
    129  CG        36.8100   23.9080   21.3830 C.3   234  LEU234      0.0019
    130  CD1       35.5180   24.7290   21.4690 C.3   234  LEU234      0.0001
    131  CD2       36.5230   22.5230   20.8350 C.3   234  LEU234      0.0001
    132  N         38.5010   29.3500   24.0460 N.3   237  VAL237     -0.1231
    133  CA        37.1420   29.7470   24.3830 C.3   237  VAL237      0.1692
    134  C         36.3370   28.7350   25.1880 C.2   237  VAL237      0.2592
    135  O         35.4720   29.1150   25.9730 O.2   237  VAL237     -0.2718
    136  CB        36.3350   30.1020   23.1150 C.3   237  VAL237      0.0266
    137  CG1       37.1050   31.1030   22.2850 C.3   237  VAL237      0.0020
    138  CG2       36.0250   28.8530   22.3220 C.3   237  VAL237      0.0020
    139  N         36.6250   27.4510   25.0020 N.am  238  GLY238     -0.1957
    140  CA        35.8890   26.4140   25.7100 C.3   238  GLY238      0.1869
    141  C         35.8730   26.4850   27.2260 C.2   238  GLY238      0.2309
    142  O         34.8780   26.1080   27.8600 O.2   238  GLY238     -0.2863
    143  N         34.0270   31.3570   28.8670 N.3   241  ASP241     -0.1225
    144  CA        32.6180   31.6850   29.0470 C.3   241  ASP241      0.1805
    145  C         31.9540   30.7640   30.0680 C.2   241  ASP241      0.2598
    146  O         31.2830   31.2140   30.9980 O.2   241  ASP241     -0.2718
    147  CB        31.8980   31.5480   27.7070 C.3   241  ASP241      0.1424
    148  CG        31.1410   32.7910   27.3210 C.2   241  ASP241      0.3668
    149  OD1       30.4040   32.7350   26.3110 O.co2 241  ASP241     -0.2456
    150  OD2       31.2840   33.8190   28.0170 O.co2 241  ASP241     -0.2456
    151  N         32.1430   29.4670   29.8810 N.am  242  THR242     -0.1953
    152  CA        31.5580   28.4800   30.7760 C.3   242  THR242      0.1897
    153  C         31.9650   28.6590   32.2360 C.2   242  THR242      0.2313
    154  O         31.1060   28.7770   33.1100 O.2   242  THR242     -0.2863
    155  CB        31.9190   27.0400   30.3260 C.3   242  THR242      0.1794
    156  OG1       33.3330   26.9440   30.1070 O.3   242  THR242     -0.2208
    157  CG2       31.1890   26.6830   29.0380 C.3   242  THR242      0.0378
    158  N         24.7550   25.5930   29.6620 N.3   285  VAL285     -0.1245
    159  CA        24.9910   25.4860   28.2240 C.3   285  VAL285      0.1561
    160  C         23.7980   24.9570   27.4430 C.2   285  VAL285      0.2260
    161  O         23.0180   24.1420   27.9440 O.2   285  VAL285     -0.2867
    162  CB        26.2080   24.5750   27.9310 C.3   285  VAL285      0.0252
    163  CG1       26.4850   24.5340   26.4230 C.3   285  VAL285      0.0019
    164  CG2       27.4330   25.0850   28.7000 C.3   285  VAL285      0.0019
    165  N         23.4910   24.0430   23.2740 N.3   287  ASP287     -0.1239
    166  CA        23.7400   24.1070   21.8450 C.3   287  ASP287      0.1674
    167  C         22.8980   23.0080   21.2010 C.2   287  ASP287      0.2266
    168  O         21.9940   22.4750   21.8510 O.2   287  ASP287     -0.2867
    169  CB        25.2510   24.0490   21.5120 C.3   287  ASP287      0.1410
    170  CG        25.8920   22.6980   21.7790 C.2   287  ASP287      0.3668
    171  OD1       25.3190   21.8780   22.5160 O.co2 287  ASP287     -0.2456
    172  OD2       27.0040   22.4760   21.2400 O.co2 287  ASP287     -0.2456
    173  N         21.6670   21.3550   27.3400 N.3   312  GLN312     -0.1245
    174  CA        22.3560   20.5550   28.3490 C.3   312  GLN312      0.1566
    175  C         21.8680   20.9920   29.7340 C.2   312  GLN312      0.2260
    176  O         21.8050   20.2000   30.6740 O.2   312  GLN312     -0.2867
    177  CB        23.8830   20.7220   28.2390 C.3   312  GLN312      0.0367
    178  CG        24.5130   19.9750   27.0490 C.3   312  GLN312      0.0905
    179  CD        24.6130   20.8120   25.7760 C.2   312  GLN312      0.2608
    180  OE1       23.9290   21.8280   25.6220 O.2   312  GLN312     -0.2717
    181  NE2       25.4680   20.3750   24.8480 N.am  312  GLN312     -0.0878
    182  N         32.2920   17.0150   27.4030 N.3   347  CYS347     -0.1235
    183  CA        33.3500   17.9700   27.7250 C.3   347  CYS347      0.1677
    184  C         34.6890   17.3600   28.1030 C.2   347  CYS347      0.2270
    185  O         34.7830   16.5590   29.0340 O.2   347  CYS347     -0.2867
    186  CB        32.9080   18.9040   28.8530 C.3   347  CYS347      0.0956
    187  SG        34.1210   20.2000   29.1970 S.3   347  CYS347     -0.0801
    188  N         23.7180   30.6190   24.2260 N.3   385  ILE385     -0.1231
    189  CA        24.3550   29.3100   24.0810 C.3   385  ILE385      0.1692
    190  C         24.9920   28.9660   25.4210 C.2   385  ILE385      0.2591
    191  O         25.0000   27.8110   25.8530 O.2   385  ILE385     -0.2718
    192  CB        25.4150   29.3290   22.9570 C.3   385  ILE385      0.0266
    193  CG1       24.7160   29.4510   21.5980 C.3   385  ILE385      0.0019
    194  CG2       26.2430   28.0540   23.0020 C.3   385  ILE385      0.0020
    195  CD1       25.6510   29.7410   20.4320 C.3   385  ILE385      0.0001
    196  N         25.5460   29.9880   26.0590 N.am  386  VAL386     -0.1980
    197  CA        26.1210   29.8570   27.3820 C.3   386  VAL386      0.1595
    198  C         25.4770   31.0040   28.1450 C.2   386  VAL386      0.2287
    199  O         25.7830   32.1720   27.9010 O.2   386  VAL386     -0.2864
    200  CB        27.6420   30.0360   27.3920 C.3   386  VAL386      0.0276
    201  CG1       28.1690   29.8420   28.8160 C.3   386  VAL386      0.0022
    202  CG2       28.2900   29.0170   26.4550 C.3   386  VAL386      0.0022
@<TRIPOS>BOND
     1    55    54    2
     2    52    53    1
     3    47    48    1
     4    54    53    1
     5    48    49    1
     6    48    51    1
     7    49    50    2
     8    53    56    1
     9    42    43    2
    10    42    41    1
    11    44    45    1
    12    44    41    1
    13    45    46    1
    14    41    40    1
    15    56    57    1
    16   115   116    2
    17   115   114    1
    18    16    15    2
    19    15    14    1
    20   120   122   ar
    21   120   118   ar
    22    64    65    1
    23   122   123   ar
    24    24    23    2
    25   113   114    1
    26   117   114    1
    27   117   118    1
    28    67    66    2
    29    57    58   ar
    30    57    59   ar
    31    40    46    1
    32    40    34   am
    33   118   119   ar
    34    65    66    1
    35    65    68    1
    36    14    13    1
    37    14    17    1
    38    58    60   ar
    39    23    22    1
    40    23    32   am
    41   123   121   ar
    42    21    22    1
    43    59    61   ar
    44    33    34    1
    45    33    32    1
    46    33    36    1
    47    70    72   ar
    48    70    69   ar
    49    34    35    2
    50    72    74   ar
    51    17    18    1
    52    22    25    1
    53   119   121   ar
    54    25    26    1
    55    77    78    2
    56    77    76    1
    57    38    36    1
    58    60    62   ar
    59    37    36    1
    60    37    39    1
    61    68    69    1
    62    69    71   ar
    63    28    26   ar
    64    28    30   ar
    65    61    62   ar
    66    26    27   ar
    67    62    63    1
    68    74    73   ar
    69    20    18   am
    70    75    76    1
    71    18    19    2
    72    30    31   ar
    73    76    79    1
    74    98    97    1
    75    71    73   ar
    76    80    79    1
    77    27    29   ar
    78    79    81    1
    79    31    29   ar
    80    96    97    1
    81    96    95    1
    82   110   111    1
    83   110   107    1
    84    85    84    2
    85    10    11   ar
    86    10     8   ar
    87    12    11    1
    88   111   112    1
    89    86    87    1
    90    86    83    1
    91   124   125    1
    92    95    92    1
    93    92    91    1
    94    92    93    1
    95    11     9   ar
    96     8     6   ar
    97    84    91   am
    98    84    83    1
    99   195   193    1
   100   128   125    1
   101   128   129    1
   102    87    88    1
   103   107   108    1
   104   107   106    1
   105    90    88   am
   106   131   129    1
   107   112   106    1
   108    83    82    1
   109   108   109    2
   110   125   126    1
   111    93    94    2
   112    93    99   am
   113   167   166    1
   114   167   168    2
   115   172   170   ar
   116    88    89    2
   117   129   130    1
   118     9     7   ar
   119     6     7   ar
   120     6     5    1
   121   169   170    1
   122   169   166    1
   123   193   192    1
   124    99   100    1
   125   170   171   ar
   126   166   165    1
   127     5     2    1
   128   137   136    1
   129   138   136    1
   130   126   127    2
   131   100   101    1
   132   100   103    1
   133   192   194    1
   134   192   189    1
   135   136   133    1
   136   101   102    2
   137     1     2    1
   138     2     3    1
   139   103   105    1
   140   103   104    1
   141   132   133    1
   142   189   188    1
   143   189   190    1
   144     3     4    2
   145   133   134    1
   146   181   179   am
   147   139   134   am
   148   139   140    1
   149   134   135    2
   150   190   191    2
   151   190   196   am
   152   180   179    2
   153   140   141    1
   154   179   178    1
   155   196   197    1
   156   149   148   ar
   157   163   162    1
   158   202   200    1
   159   178   177    1
   160   141   142    2
   161   148   147    1
   162   148   150   ar
   163   173   174    1
   164   197   200    1
   165   197   198    1
   166   200   201    1
   167   182   183    1
   168   160   161    2
   169   160   159    1
   170   147   144    1
   171   183   184    1
   172   183   186    1
   173   199   198    2
   174   162   159    1
   175   162   164    1
   176   184   185    2
   177   159   158    1
   178   177   174    1
   179   174   175    1
   180   186   187    1
   181   143   144    1
   182   157   155    1
   183   144   145    1
   184   175   176    2
   185   151   145   am
   186   151   152    1
   187   145   146    2
   188   156   155    1
   189   155   152    1
   190   152   153    1
   191   153   154    2
