@<TRIPOS>MOLECULE
tmp/1rffC00.pdb
 200 190 0 0 0
SMALL
GASTEIGER

@<TRIPOS>ATOM
      1  N         13.5340   55.4130    2.8110 N.3    43  TYR43      -0.1241
      2  CA        13.6860   54.4770    1.7150 C.3    43  TYR43       0.1605
      3  C         14.1460   55.2850    0.5030 C.2    43  TYR43       0.2264
      4  O         15.2910   55.1350    0.0430 O.2    43  TYR43      -0.2867
      5  CB        12.3610   53.7520    1.4390 C.3    43  TYR43       0.0534
      6  CG        12.3960   52.8010    0.2850 C.ar   43  TYR43      -0.0201
      7  CD1       13.5420   52.0580    0.0030 C.ar   43  TYR43      -0.0009
      8  CD2       11.3020   52.6340   -0.5240 C.ar   43  TYR43      -0.0009
      9  CE1       13.5730   51.1710   -1.0660 C.ar   43  TYR43       0.0417
     10  CE2       11.3250   51.7560   -1.6040 C.ar   43  TYR43       0.0417
     11  CZ        12.4620   51.0340   -1.8670 C.ar   43  TYR43       0.1957
     12  OH        12.4840   50.1670   -2.9250 O.3    43  TYR43      -0.2866
     13  N         15.8140   40.9150   -1.3010 N.3    98  PHE98      -0.1227
     14  CA        14.4760   41.4970   -1.4070 C.3    98  PHE98       0.1736
     15  C         14.0580   42.2760   -0.1470 C.2    98  PHE98       0.2596
     16  O         12.8760   42.6370    0.0120 O.2    98  PHE98      -0.2718
     17  CB        13.4440   40.4310   -1.7890 C.3    98  PHE98       0.0547
     18  CG        13.4790   40.0680   -3.2490 C.ar   98  PHE98      -0.0202
     19  CD1       14.4730   39.2310   -3.7440 C.ar   98  PHE98      -0.0042
     20  CD2       12.5440   40.5880   -4.1340 C.ar   98  PHE98      -0.0042
     21  CE1       14.5220   38.9020   -5.1060 C.ar   98  PHE98      -0.0003
     22  CE2       12.5830   40.2650   -5.4900 C.ar   98  PHE98      -0.0003
     23  CZ        13.5780   39.4240   -5.9750 C.ar   98  PHE98      -0.0000
     24  N         15.0300   42.5400    0.7280 N.am   99  GLY99      -0.1942
     25  CA        14.8390   43.4470    1.8510 C.3    99  GLY99       0.2014
     26  C         15.0240   44.8990    1.4320 C.2    99  GLY99       0.2639
     27  O         15.7430   45.2040    0.4750 O.2    99  GLY99      -0.2714
     28  N         14.3690   45.8080    2.1490 N.am  100  THR100     -0.1950
     29  CA        14.5490   47.2260    1.9370 C.3   100  THR100      0.1897
     30  C         14.7210   47.8820    3.2910 C.2   100  THR100      0.2313
     31  O         14.2850   47.3390    4.3180 O.2   100  THR100     -0.2863
     32  CB        13.3030   47.8310    1.2150 C.3   100  THR100      0.1794
     33  OG1       12.1790   47.7120    2.0690 O.3   100  THR100     -0.2208
     34  CG2       12.8580   46.9530    0.1060 C.3   100  THR100      0.0378
     35  N         13.1020   50.3920    5.0000 N.3   102  HIS102     -0.1241
     36  CA        11.8150   51.0250    4.7160 C.3   102  HIS102      0.1621
     37  C         11.3280   51.9860    5.8090 C.2   102  HIS102      0.2264
     38  O         10.4670   52.8060    5.5520 O.2   102  HIS102     -0.2867
     39  CB        10.7710   49.9680    4.4100 C.3   102  HIS102      0.0745
     40  CG         9.5580   50.5060    3.7240 C.ar  102  HIS102      0.0817
     41  ND1        8.3030   50.4560    4.3000 N.ar  102  HIS102     -0.2268
     42  CD2        9.4060   51.1150    2.5240 C.ar  102  HIS102      0.1154
     43  CE1        7.4240   50.9860    3.4680 C.ar  102  HIS102      0.1986
     44  NE2        8.0680   51.4080    2.3880 N.ar  102  HIS102     -0.2212
     45  N          8.1540   58.9420    2.1210 N.3   122  ASN122     -0.1240
     46  CA         9.5110   59.0490    1.5610 C.3   122  ASN122      0.1653
     47  C          9.9490   60.5130    1.5300 C.2   122  ASN122      0.2266
     48  O          9.1030   61.4220    1.5570 O.2   122  ASN122     -0.2867
     49  CB         9.5560   58.4580    0.1470 C.3   122  ASN122      0.1155
     50  CG         9.4120   56.9580    0.1610 C.2   122  ASN122      0.2627
     51  OD1       10.3820   56.2350    0.4490 O.2   122  ASN122     -0.2716
     52  ND2        8.1880   56.4630   -0.1440 N.am  122  ASN122     -0.0877
     53  N          1.4510   48.5780   -0.3240 N.3   235  SER235     -0.1202
     54  CA         2.2000   47.5890   -1.0820 C.3   235  SER235      0.2020
     55  C          1.7770   46.2180   -0.5770 C.2   235  SER235      0.2619
     56  O          1.3810   46.0770    0.5820 O.2   235  SER235     -0.2717
     57  CB         3.6950   47.8240   -0.8560 C.3   235  SER235      0.2103
     58  OG         4.5000   46.9980   -1.6750 O.3   235  SER235     -0.2182
     59  N          1.8230   45.2220   -1.4600 N.am  236  VAL236     -0.1965
     60  CA         1.3180   43.9020   -1.1560 C.3   236  VAL236      0.1727
     61  C          2.3720   42.8900   -1.5760 C.2   236  VAL236      0.2617
     62  O          2.7410   42.8150   -2.7610 O.2   236  VAL236     -0.2715
     63  CB         0.0030   43.6360   -1.9260 C.3   236  VAL236      0.0290
     64  CG1       -0.7220   42.4090   -1.3670 C.3   236  VAL236      0.0023
     65  CG2       -0.9160   44.8580   -1.8690 C.3   236  VAL236      0.0023
     66  N          2.8660   42.1220   -0.6110 N.am  237  GLY237     -0.1940
     67  CA         3.8610   41.0930   -0.8930 C.3   237  GLY237      0.2014
     68  C          3.2190   39.8350   -1.4610 C.2   237  GLY237      0.2639
     69  O          1.9990   39.7980   -1.6590 O.2   237  GLY237     -0.2714
     70  N          4.0400   38.8280   -1.7570 N.am  238  SER238     -0.1949
     71  CA         3.5380   37.5210   -2.1830 C.3   238  SER238      0.1924
     72  C          3.0970   36.7350   -0.9430 C.2   238  SER238      0.2314
     73  O          3.9280   36.3210   -0.1500 O.2   238  SER238     -0.2863
     74  CB         4.6380   36.7630   -2.9270 C.3   238  SER238      0.2116
     75  OG         4.1820   35.4840   -3.3140 O.3   238  SER238     -0.2180
     76  N          1.3170   33.8410   -0.5810 N.3   240  GLY240     -0.1225
     77  CA         1.1710   32.4010   -0.6450 C.3   240  GLY240      0.1811
     78  C         -0.0470   31.9710   -1.4350 C.2   240  GLY240      0.2280
     79  O         -0.9410   32.7740   -1.7200 O.2   240  GLY240     -0.2866
     80  N          2.8200   49.8910   -5.6730 N.3   286  PRO286     -0.2116
     81  CA         3.5740   49.0390   -6.6060 C.3   286  PRO286      0.1372
     82  C          3.1910   47.5460   -6.5810 C.2   286  PRO286      0.2244
     83  O          4.0810   46.7000   -6.5950 O.2   286  PRO286     -0.2868
     84  CB         5.0200   49.2170   -6.1270 C.3   286  PRO286      0.0268
     85  CG         4.8970   49.4510   -4.6770 C.3   286  PRO286      0.0207
     86  CD         3.5660   50.1430   -4.4250 C.3   286  PRO286      0.0892
     87  N          2.2930   44.3100   -8.2810 N.3   288  SER288     -0.1217
     88  CA         2.5810   43.8520   -9.6440 C.3   288  SER288      0.1889
     89  C          1.6670   42.7190  -10.0830 C.2   288  SER288      0.2288
     90  O          1.2250   41.9000   -9.2630 O.2   288  SER288     -0.2866
     91  CB         4.0290   43.3910   -9.7460 C.3   288  SER288      0.2089
     92  OG         4.1240   42.0700   -9.2370 O.3   288  SER288     -0.2183
     93  N          2.7560   39.2490   -8.9600 N.3   291  THR291     -0.1218
     94  CA         2.3590   38.9160   -7.5960 C.3   291  THR291      0.1862
     95  C          0.8660   38.6570   -7.5010 C.2   291  THR291      0.2287
     96  O          0.4540   37.6380   -6.9550 O.2   291  THR291     -0.2866
     97  CB         2.7410   40.0530   -6.6240 C.3   291  THR291      0.1770
     98  OG1        4.1500   40.2960   -6.7080 O.3   291  THR291     -0.2211
     99  CG2        2.5260   39.6240   -5.1780 C.3   291  THR291      0.0375
    100  N         -0.8390   35.3280   -8.5750 N.3   294  LYS294     -0.1245
    101  CA        -0.5560   34.1510   -7.7490 C.3   294  LYS294      0.1561
    102  C         -1.5570   33.9950   -6.6130 C.2   294  LYS294      0.2260
    103  O         -1.6340   32.9380   -5.9750 O.2   294  LYS294     -0.2867
    104  CB         0.8300   34.2560   -7.1150 C.3   294  LYS294      0.0271
    105  CG         2.0160   34.3100   -8.0700 C.3   294  LYS294      0.0035
    106  CD         3.3080   34.2770   -7.2610 C.3   294  LYS294      0.0206
    107  CE         4.4950   34.8140   -8.0440 C.3   294  LYS294      0.1093
    108  NZ         5.6080   35.1890   -7.1240 N.3   294  LYS294     -0.1314
    109  N         -0.5820   56.5210    1.2820 N.3   318  HIS318     -0.1241
    110  CA         0.7180   55.8990    1.4450 C.3   318  HIS318      0.1621
    111  C          0.9630   55.6140    2.9300 C.2   318  HIS318      0.2264
    112  O          1.9320   54.9730    3.2780 O.2   318  HIS318     -0.2867
    113  CB         1.8200   56.7920    0.8580 C.3   318  HIS318      0.0745
    114  CG         3.1570   56.1340    0.7730 C.ar  318  HIS318      0.0817
    115  ND1        4.1160   56.2660    1.7560 N.ar  318  HIS318     -0.2268
    116  CD2        3.7150   55.3710   -0.1970 C.ar  318  HIS318      0.1154
    117  CE1        5.1970   55.5790    1.4050 C.ar  318  HIS318      0.1986
    118  NE2        4.9840   55.0460    0.2150 N.ar  318  HIS318     -0.2212
    119  N          0.2280   53.5320    6.3200 N.3   320  LYS320     -0.1245
    120  CA        -0.1040   52.1290    6.6100 C.3   320  LYS320      0.1561
    121  C         -0.6050   52.1070    8.0470 C.2   320  LYS320      0.2260
    122  O          0.0350   52.6740    8.9420 O.2   320  LYS320     -0.2867
    123  CB         1.1020   51.1790    6.4820 C.3   320  LYS320      0.0271
    124  CG         1.9150   51.2670    5.1760 C.3   320  LYS320      0.0035
    125  CD         2.8800   52.4670    5.1830 C.3   320  LYS320      0.0206
    126  CE         3.9460   52.3110    4.0540 C.3   320  LYS320      0.1093
    127  NZ         3.3420   52.5380    2.6930 N.3   320  LYS320     -0.1314
    128  N          4.0740   47.5710    5.1690 N.3   341  ASN341     -0.1240
    129  CA         3.0210   47.1580    4.2540 C.3   341  ASN341      0.1653
    130  C          2.6050   45.6930    4.4660 C.2   341  ASN341      0.2266
    131  O          3.0960   45.0190    5.3870 O.2   341  ASN341     -0.2867
    132  CB         3.4830   47.3900    2.7990 C.3   341  ASN341      0.1155
    133  CG         3.6160   48.8680    2.4700 C.2   341  ASN341      0.2627
    134  OD1        2.6280   49.5820    2.4480 O.2   341  ASN341     -0.2716
    135  ND2        4.8400   49.3270    2.2070 N.am  341  ASN341     -0.0877
    136  N          3.2340   42.6020    3.7500 N.3   343  SER343     -0.1202
    137  CA         4.2270   41.6920    3.1750 C.3   343  SER343      0.2020
    138  C          4.8930   40.8510    4.2700 C.2   343  SER343      0.2619
    139  O          5.0540   41.3020    5.4040 O.2   343  SER343     -0.2717
    140  CB         5.2990   42.4650    2.3620 C.3   343  SER343      0.2103
    141  OG         6.1700   43.2380    3.1940 O.3   343  SER343     -0.2182
    142  N          5.3150   39.6360    3.9080 N.am  344  LYS344     -0.1965
    143  CA         6.1580   38.8400    4.7850 C.3   344  LYS344      0.1728
    144  C          7.4940   39.5140    4.9860 C.2   344  LYS344      0.2616
    145  O          8.1190   39.3760    6.0400 O.2   344  LYS344     -0.2715
    146  CB         6.3930   37.4570    4.1830 C.3   344  LYS344      0.0311
    147  CG         5.1490   36.5900    4.0840 C.3   344  LYS344      0.0038
    148  CD         5.4780   35.3490    3.2490 C.3   344  LYS344      0.0206
    149  CE         4.5250   34.2050    3.4930 C.3   344  LYS344      0.1093
    150  NZ         5.1410   32.9150    3.0200 N.3   344  LYS344     -0.1314
    151  N          7.9430   40.2370    3.9630 N.am  345  ALA345     -0.1963
    152  CA         9.2180   40.9410    4.0230 C.3   345  ALA345      0.1728
    153  C          9.2750   41.9210    5.2000 C.2   345  ALA345      0.2616
    154  O         10.2920   42.0350    5.8920 O.2   345  ALA345     -0.2715
    155  CB         9.4620   41.6880    2.7150 C.3   345  ALA345      0.0334
    156  N          8.1650   42.6300    5.3990 N.am  346  ALA346     -0.1977
    157  CA         8.0270   43.6420    6.4300 C.3   346  ALA346      0.1597
    158  C          7.6640   43.0330    7.7980 C.2   346  ALA346      0.2287
    159  O          8.1610   43.4580    8.8250 O.2   346  ALA346     -0.2864
    160  CB         6.9240   44.6360    5.9890 C.3   346  ALA346      0.0319
    161  N         12.8180   40.3680    6.2290 N.3   360  ARG360     -0.1231
    162  CA        13.7300   40.8700    5.2090 C.3   360  ARG360      0.1694
    163  C         14.1860   42.3180    5.4080 C.2   360  ARG360      0.2592
    164  O         15.2680   42.6880    4.9540 O.2   360  ARG360     -0.2718
    165  CB        13.0850   40.7360    3.8310 C.3   360  ARG360      0.0321
    166  CG        12.8110   39.3080    3.4200 C.3   360  ARG360      0.0489
    167  CD        12.4640   39.0860    1.9420 C.3   360  ARG360      0.2205
    168  NE        11.8920   37.7480    1.7330 N.pl3 360  ARG360     -0.0865
    169  CZ        12.5760   36.7030    1.2520 C.cat 360  ARG360      0.5346
    170  NH1       13.8450   36.8400    0.9260 N.pl3 360  ARG360      0.1354
    171  NH2       11.9890   35.5300    1.1000 N.pl3 360  ARG360      0.1354
    172  N         13.3670   43.1310    6.0910 N.am  361  SER361     -0.1952
    173  CA        13.4540   44.6000    5.9780 C.3   361  SER361      0.1924
    174  C         13.5280   45.3810    7.2980 C.2   361  SER361      0.2314
    175  O         13.2610   44.8350    8.3750 O.2   361  SER361     -0.2863
    176  CB        12.2370   45.1040    5.1960 C.3   361  SER361      0.2116
    177  OG        12.1380   44.5100    3.9030 O.3   361  SER361     -0.2180
    178  N         11.5580   48.1720    9.3050 N.3   363  GLU363     -0.1245
    179  CA        10.2510   48.8670    9.3990 C.3   363  GLU363      0.1567
    180  C         10.1180   49.4480   10.8050 C.2   363  GLU363      0.2260
    181  O         10.7720   48.9810   11.7470 O.2   363  GLU363     -0.2867
    182  CB         9.0870   47.8900    9.1580 C.3   363  GLU363      0.0388
    183  CG         9.1840   47.1150    7.8590 C.3   363  GLU363      0.1160
    184  CD         8.7680   47.9200    6.6300 C.2   363  GLU363      0.3649
    185  OE1        8.8360   47.3300    5.5320 O.co2 363  GLU363     -0.2457
    186  OE2        8.4030   49.1130    6.7510 O.co2 363  GLU363     -0.2457
    187  N          0.2090   48.1760  -10.6920 N.3   407  TRP407     -0.1241
    188  CA         0.8950   49.3050  -11.2760 C.3   407  TRP407      0.1605
    189  C          1.5560   49.0530  -12.6120 C.2   407  TRP407      0.2264
    190  O          1.8930   50.0050  -13.2890 O.2   407  TRP407     -0.2867
    191  CB         1.9100   49.9370  -10.2980 C.3   407  TRP407      0.0550
    192  CG         3.2340   49.2250  -10.1240 C.ar  407  TRP407      0.0003
    193  CD1        3.4910   47.8730  -10.2530 C.ar  407  TRP407      0.0946
    194  CD2        4.4770   49.8220   -9.7370 C.ar  407  TRP407      0.0152
    195  NE1        4.8160   47.6200   -9.9900 N.ar  407  TRP407     -0.2442
    196  CE2        5.4390   48.7970   -9.6670 C.ar  407  TRP407      0.0810
    197  CE3        4.8740   51.1300   -9.4330 C.ar  407  TRP407      0.0012
    198  CZ2        6.7760   49.0420   -9.3230 C.ar  407  TRP407      0.0191
    199  CZ3        6.1970   51.3720   -9.0910 C.ar  407  TRP407      0.0001
    200  CH2        7.1290   50.3320   -9.0320 C.ar  407  TRP407      0.0015
@<TRIPOS>BOND
     1   190   189    2
     2   189   188    1
     3   188   187    1
     4   188   191    1
     5   191   192    1
     6   193   192   ar
     7   193   195   ar
     8   192   194   ar
     9    89    88    1
    10    89    90    2
    11   195   196   ar
    12    91    88    1
    13    91    92    1
    14   194   196   ar
    15   194   197   ar
    16   196   198   ar
    17    88    87    1
    18   197   199   ar
    19   198   200   ar
    20   199   200   ar
    21    93    94    1
    22   100   101    1
    23   105   106    1
    24   105   104    1
    25   107   106    1
    26   107   108    1
    27   101   104    1
    28   101   102    1
    29    94    95    1
    30    94    97    1
    31    95    96    2
    32    98    97    1
    33    97    99    1
    34   102   103    2
    35    81    82    1
    36    81    84    1
    37    81    80    1
    38    83    82    2
    39    84    85    1
    40    23    22   ar
    41    23    21   ar
    42    80    86    1
    43    22    20   ar
    44    21    19   ar
    45    85    86    1
    46    20    18   ar
    47    19    18   ar
    48    75    74    1
    49    18    17    1
    50    74    71    1
    51    12    11    1
    52    62    61    2
    53    71    70    1
    54    71    72    1
    55    63    65    1
    56    63    64    1
    57    63    60    1
    58    11    10   ar
    59    11     9   ar
    60    17    14    1
    61    70    68   am
    62    79    78    2
    63    58    57    1
    64    69    68    2
    65    10     8   ar
    66    61    60    1
    67    61    66   am
    68    68    67    1
    69    59    60    1
    70    59    55   am
    71    78    77    1
    72    14    13    1
    73    14    15    1
    74    54    57    1
    75    54    55    1
    76    54    53    1
    77     9     7   ar
    78    72    73    2
    79    67    66    1
    80    77    76    1
    81    55    56    2
    82     8     6   ar
    83   116   118   ar
    84   116   114   ar
    85    15    16    2
    86    15    24   am
    87    52    50   am
    88     7     6   ar
    89     4     3    2
    90    34    32    1
    91    49    50    1
    92    49    46    1
    93    50    51    2
    94   118   117   ar
    95     6     5    1
    96    27    26    2
    97     3     2    1
    98    24    25    1
    99   114   113    1
   100   114   115   ar
   101   113   110    1
   102   170   169    1
   103   171   169    1
   104    32    29    1
   105    32    33    1
   106   169   168    2
   107   109   110    1
   108   117   115   ar
   109    26    25    1
   110    26    28   am
   111     5     2    1
   112   110   111    1
   113    47    48    2
   114    47    46    1
   115    46    45    1
   116     2     1    1
   117   168   167    1
   118    29    28    1
   119    29    30    1
   120   167   166    1
   121   135   133   am
   122   140   137    1
   123   140   141    1
   124    44    42   ar
   125    44    43   ar
   126   134   133    2
   127   133   132    1
   128    42    40   ar
   129   127   126    1
   130   155   152    1
   131   132   129    1
   132   111   112    2
   133   150   149    1
   134   137   136    1
   135   137   138    1
   136   148   149    1
   137   148   147    1
   138    30    31    2
   139   166   165    1
   140    43    41   ar
   141    40    41   ar
   142    40    39    1
   143   165   162    1
   144   177   176    1
   145   142   138   am
   146   142   143    1
   147   151   152    1
   148   151   144   am
   149   152   153    1
   150   126   125    1
   151   147   146    1
   152   146   143    1
   153   129   130    1
   154   129   128    1
   155   138   139    2
   156    39    36    1
   157   130   131    2
   158    36    35    1
   159    36    37    1
   160   143   144    1
   161   164   163    2
   162   144   145    2
   163   124   125    1
   164   124   123    1
   165   176   173    1
   166   153   156   am
   167   153   154    2
   168   162   163    1
   169   162   161    1
   170   156   157    1
   171   163   172   am
   172   185   184   ar
   173    38    37    2
   174   173   172    1
   175   173   174    1
   176   160   157    1
   177   119   120    1
   178   157   158    1
   179   123   120    1
   180   120   121    1
   181   184   186   ar
   182   184   183    1
   183   174   175    2
   184   158   159    2
   185   183   182    1
   186   121   122    2
   187   182   179    1
   188   178   179    1
   189   179   180    1
   190   180   181    2
