@<TRIPOS>MOLECULE
tmp/1rffC01.pdb
 177 170 0 0 0
SMALL
GASTEIGER

@<TRIPOS>ATOM
      1  N         13.5340   55.4130    2.8110 N.3    43  TYR43      -0.1227
      2  CA        13.6860   54.4770    1.7150 C.3    43  TYR43       0.1736
      3  C         14.1460   55.2850    0.5030 C.2    43  TYR43       0.2596
      4  O         15.2910   55.1350    0.0430 O.2    43  TYR43      -0.2718
      5  CB        12.3610   53.7520    1.4390 C.3    43  TYR43       0.0548
      6  CG        12.3960   52.8010    0.2850 C.ar   43  TYR43      -0.0200
      7  CD1       13.5420   52.0580    0.0030 C.ar   43  TYR43      -0.0009
      8  CD2       11.3020   52.6340   -0.5240 C.ar   43  TYR43      -0.0009
      9  CE1       13.5730   51.1710   -1.0660 C.ar   43  TYR43       0.0417
     10  CE2       11.3250   51.7560   -1.6040 C.ar   43  TYR43       0.0417
     11  CZ        12.4620   51.0340   -1.8670 C.ar   43  TYR43       0.1957
     12  OH        12.4840   50.1670   -2.9250 O.3    43  TYR43      -0.2866
     13  N         13.2810   56.1760    0.0110 N.am   44  CYS44      -0.1956
     14  CA        13.6480   57.0350   -1.1190 C.3    44  CYS44       0.1843
     15  C         13.9750   58.4210   -0.6540 C.2    44  CYS44       0.2625
     16  O         13.3430   58.9290    0.2610 O.2    44  CYS44      -0.2714
     17  CB        12.5060   57.1200   -2.1470 C.3    44  CYS44       0.0997
     18  SG        12.1670   55.5250   -2.8970 S.3    44  CYS44      -0.0797
     19  N         14.9890   59.0320   -1.2770 N.am   45  PHE45      -0.1960
     20  CA        15.4260   60.3860   -0.9250 C.3    45  PHE45       0.1771
     21  C         15.6540   61.1990   -2.1990 C.2    45  PHE45       0.2619
     22  O         16.2530   60.6970   -3.1570 O.2    45  PHE45      -0.2715
     23  CB        16.8130   60.4090   -0.2400 C.3    45  PHE45       0.0574
     24  CG        16.8830   59.7240    1.1090 C.ar   45  PHE45      -0.0200
     25  CD1       16.9700   58.3490    1.1730 C.ar   45  PHE45      -0.0042
     26  CD2       16.9470   60.4690    2.2810 C.ar   45  PHE45      -0.0042
     27  CE1       17.0630   57.7010    2.4130 C.ar   45  PHE45      -0.0003
     28  CE2       17.0390   59.8340    3.5320 C.ar   45  PHE45      -0.0003
     29  CZ        17.1110   58.4390    3.5800 C.ar   45  PHE45      -0.0000
     30  N         15.2480   62.4600   -2.1580 N.am   46  ASP46      -0.1971
     31  CA        15.6570   63.4620   -3.1400 C.3    46  ASP46       0.1709
     32  C         16.3660   64.5230   -2.3000 C.2    46  ASP46       0.2293
     33  O         15.7300   65.2960   -1.6120 O.2    46  ASP46      -0.2864
     34  CB        14.4150   64.0110   -3.8430 C.3    46  ASP46       0.1436
     35  CG        14.7240   65.1520   -4.7990 C.2    46  ASP46       0.3671
     36  OD1       15.8370   65.7430   -4.6990 O.co2  46  ASP46      -0.2456
     37  OD2       13.8770   65.5240   -5.6590 O.co2  46  ASP46      -0.2456
     38  N         20.4990   51.7890    0.0720 N.3    69  ASP69      -0.1239
     39  CA        20.9330   51.7030   -1.3400 C.3    69  ASP69       0.1674
     40  C         22.2740   50.9910   -1.4830 C.2    69  ASP69       0.2266
     41  O         23.1370   51.1110   -0.6140 O.2    69  ASP69      -0.2867
     42  CB        21.0410   53.0890   -1.9660 C.3    69  ASP69       0.1410
     43  CG        19.6900   53.7890   -2.0650 C.2    69  ASP69       0.3668
     44  OD1       18.6620   53.1260   -1.8100 O.co2  69  ASP69      -0.2456
     45  OD2       19.5620   54.9920   -2.3820 O.co2  69  ASP69      -0.2456
     46  N         22.8650   52.5900   -7.2800 N.3    73  ALA73      -0.1245
     47  CA        21.9230   53.4640   -6.5660 C.3    73  ALA73       0.1562
     48  C         22.6240   54.1850   -5.4100 C.2    73  ALA73       0.2260
     49  O         22.4400   55.3960   -5.2150 O.2    73  ALA73      -0.2867
     50  CB        20.7110   52.6760   -6.0670 C.3    73  ALA73       0.0290
     51  N         23.1430   58.3010   -4.9070 N.3    77  LEU77      -0.1245
     52  CA        22.7610   59.0310   -3.6930 C.3    77  LEU77       0.1561
     53  C         23.9480   59.8400   -3.1200 C.2    77  LEU77       0.2260
     54  O         23.7970   60.9940   -2.6930 O.2    77  LEU77      -0.2867
     55  CB        22.1970   58.0490   -2.6590 C.3    77  LEU77       0.0270
     56  CG        21.6230   58.5790   -1.3460 C.3    77  LEU77       0.0019
     57  CD1       20.4090   59.4620   -1.5620 C.3    77  LEU77       0.0001
     58  CD2       21.2470   57.3740   -0.4680 C.3    77  LEU77       0.0001
     59  N         24.3080   62.9580   -5.2500 N.3    80  GLN80      -0.1245
     60  CA        23.3710   64.0370   -4.9050 C.3    80  GLN80       0.1566
     61  C         23.7690   64.7180   -3.6110 C.2    80  GLN80       0.2260
     62  O         23.5090   65.9020   -3.4350 O.2    80  GLN80      -0.2867
     63  CB        21.9390   63.5580   -4.6890 C.3    80  GLN80       0.0367
     64  CG        21.2550   62.8110   -5.7840 C.3    80  GLN80       0.0905
     65  CD        19.9630   62.2100   -5.2470 C.2    80  GLN80       0.2608
     66  OE1       19.1300   62.9280   -4.6740 O.2    80  GLN80      -0.2717
     67  NE2       19.8160   60.8960   -5.3860 N.am   80  GLN80      -0.0878
     68  N         13.1020   50.3920    5.0000 N.3   102  HIS102     -0.1241
     69  CA        11.8150   51.0250    4.7160 C.3   102  HIS102      0.1621
     70  C         11.3280   51.9860    5.8090 C.2   102  HIS102      0.2264
     71  O         10.4670   52.8060    5.5520 O.2   102  HIS102     -0.2867
     72  CB        10.7710   49.9680    4.4100 C.3   102  HIS102      0.0745
     73  CG         9.5580   50.5060    3.7240 C.ar  102  HIS102      0.0817
     74  ND1        8.3030   50.4560    4.3000 N.ar  102  HIS102     -0.2268
     75  CD2        9.4060   51.1150    2.5240 C.ar  102  HIS102      0.1154
     76  CE1        7.4240   50.9860    3.4680 C.ar  102  HIS102      0.1986
     77  NE2        8.0680   51.4080    2.3880 N.ar  102  HIS102     -0.2212
     78  N          8.1540   58.9420    2.1210 N.3   122  ASN122     -0.1240
     79  CA         9.5110   59.0490    1.5610 C.3   122  ASN122      0.1653
     80  C          9.9490   60.5130    1.5300 C.2   122  ASN122      0.2266
     81  O          9.1030   61.4220    1.5570 O.2   122  ASN122     -0.2867
     82  CB         9.5560   58.4580    0.1470 C.3   122  ASN122      0.1155
     83  CG         9.4120   56.9580    0.1610 C.2   122  ASN122      0.2627
     84  OD1       10.3820   56.2350    0.4490 O.2   122  ASN122     -0.2716
     85  ND2        8.1880   56.4630   -0.1440 N.am  122  ASN122     -0.0877
     86  N         10.7060   62.7760   -0.6220 N.3   124  ILE124     -0.1245
     87  CA        10.6030   63.1780   -2.0210 C.3   124  ILE124      0.1561
     88  C          9.3470   64.0280   -2.1450 C.2   124  ILE124      0.2260
     89  O          8.3780   63.8620   -1.3800 O.2   124  ILE124     -0.2867
     90  CB        10.5430   61.9250   -2.9740 C.3   124  ILE124      0.0252
     91  CG1        9.2300   61.1540   -2.7940 C.3   124  ILE124      0.0019
     92  CG2       11.7890   60.9930   -2.7900 C.3   124  ILE124      0.0019
     93  CD1        9.1040   59.9200   -3.7040 C.3   124  ILE124      0.0001
     94  N         -0.0990   50.0610    1.3030 N.3   234  SER234     -0.1202
     95  CA         0.0600   50.5570   -0.0580 C.3   234  SER234      0.2020
     96  C          0.9360   49.6490   -0.9160 C.2   234  SER234      0.2619
     97  O          1.1330   49.9280   -2.0960 O.2   234  SER234     -0.2717
     98  CB         0.5830   51.9960   -0.0690 C.3   234  SER234      0.2103
     99  OG         1.8120   52.1640    0.6510 O.3   234  SER234     -0.2182
    100  N          1.4510   48.5780   -0.3240 N.am  235  SER235     -0.1951
    101  CA         2.2000   47.5890   -1.0820 C.3   235  SER235      0.1924
    102  C          1.7770   46.2180   -0.5770 C.2   235  SER235      0.2314
    103  O          1.3810   46.0770    0.5820 O.2   235  SER235     -0.2863
    104  CB         3.6950   47.8240   -0.8560 C.3   235  SER235      0.2116
    105  OG         4.5000   46.9980   -1.6750 O.3   235  SER235     -0.2180
    106  N          2.1520   55.1710   -9.0650 N.3   283  GLY283     -0.1210
    107  CA         3.5930   55.0190   -8.9590 C.3   283  GLY283      0.1956
    108  C          4.0560   54.7200   -7.5390 C.2   283  GLY283      0.2612
    109  O          5.2130   54.3320   -7.3280 O.2   283  GLY283     -0.2717
    110  N          3.1560   54.9010   -6.5680 N.am  284  SER284     -0.1952
    111  CA         3.4500   54.6670   -5.1490 C.3   284  SER284      0.1924
    112  C          2.6160   53.5180   -4.5680 C.2   284  SER284      0.2314
    113  O          2.6040   53.2960   -3.3370 O.2   284  SER284     -0.2863
    114  CB         3.2500   55.9530   -4.3310 C.3   284  SER284      0.2116
    115  OG         4.0750   56.9940   -4.8530 O.3   284  SER284     -0.2180
    116  N          2.8200   49.8910   -5.6730 N.3   286  PRO286     -0.2116
    117  CA         3.5740   49.0390   -6.6060 C.3   286  PRO286      0.1372
    118  C          3.1910   47.5460   -6.5810 C.2   286  PRO286      0.2244
    119  O          4.0810   46.7000   -6.5950 O.2   286  PRO286     -0.2868
    120  CB         5.0200   49.2170   -6.1270 C.3   286  PRO286      0.0268
    121  CG         4.8970   49.4510   -4.6770 C.3   286  PRO286      0.0207
    122  CD         3.5660   50.1430   -4.4250 C.3   286  PRO286      0.0892
    123  N         -0.5820   56.5210    1.2820 N.3   318  HIS318     -0.1241
    124  CA         0.7180   55.8990    1.4450 C.3   318  HIS318      0.1621
    125  C          0.9630   55.6140    2.9300 C.2   318  HIS318      0.2264
    126  O          1.9320   54.9730    3.2780 O.2   318  HIS318     -0.2867
    127  CB         1.8200   56.7920    0.8580 C.3   318  HIS318      0.0745
    128  CG         3.1570   56.1340    0.7730 C.ar  318  HIS318      0.0817
    129  ND1        4.1160   56.2660    1.7560 N.ar  318  HIS318     -0.2268
    130  CD2        3.7150   55.3710   -0.1970 C.ar  318  HIS318      0.1154
    131  CE1        5.1970   55.5790    1.4050 C.ar  318  HIS318      0.1986
    132  NE2        4.9840   55.0460    0.2150 N.ar  318  HIS318     -0.2212
    133  N          0.2280   53.5320    6.3200 N.3   320  LYS320     -0.1245
    134  CA        -0.1040   52.1290    6.6100 C.3   320  LYS320      0.1561
    135  C         -0.6050   52.1070    8.0470 C.2   320  LYS320      0.2260
    136  O          0.0350   52.6740    8.9420 O.2   320  LYS320     -0.2867
    137  CB         1.1020   51.1790    6.4820 C.3   320  LYS320      0.0271
    138  CG         1.9150   51.2670    5.1760 C.3   320  LYS320      0.0035
    139  CD         2.8800   52.4670    5.1830 C.3   320  LYS320      0.0206
    140  CE         3.9460   52.3110    4.0540 C.3   320  LYS320      0.1093
    141  NZ         3.3420   52.5380    2.6930 N.3   320  LYS320     -0.1314
    142  N          4.0740   47.5710    5.1690 N.3   341  ASN341     -0.1240
    143  CA         3.0210   47.1580    4.2540 C.3   341  ASN341      0.1653
    144  C          2.6050   45.6930    4.4660 C.2   341  ASN341      0.2266
    145  O          3.0960   45.0190    5.3870 O.2   341  ASN341     -0.2867
    146  CB         3.4830   47.3900    2.7990 C.3   341  ASN341      0.1155
    147  CG         3.6160   48.8680    2.4700 C.2   341  ASN341      0.2627
    148  OD1        2.6280   49.5820    2.4480 O.2   341  ASN341     -0.2716
    149  ND2        4.8400   49.3270    2.2070 N.am  341  ASN341     -0.0877
    150  N          0.2090   48.1760  -10.6920 N.3   407  TRP407     -0.1241
    151  CA         0.8950   49.3050  -11.2760 C.3   407  TRP407      0.1605
    152  C          1.5560   49.0530  -12.6120 C.2   407  TRP407      0.2264
    153  O          1.8930   50.0050  -13.2890 O.2   407  TRP407     -0.2867
    154  CB         1.9100   49.9370  -10.2980 C.3   407  TRP407      0.0550
    155  CG         3.2340   49.2250  -10.1240 C.ar  407  TRP407      0.0003
    156  CD1        3.4910   47.8730  -10.2530 C.ar  407  TRP407      0.0946
    157  CD2        4.4770   49.8220   -9.7370 C.ar  407  TRP407      0.0152
    158  NE1        4.8160   47.6200   -9.9900 N.ar  407  TRP407     -0.2442
    159  CE2        5.4390   48.7970   -9.6670 C.ar  407  TRP407      0.0810
    160  CE3        4.8740   51.1300   -9.4330 C.ar  407  TRP407      0.0012
    161  CZ2        6.7760   49.0420   -9.3230 C.ar  407  TRP407      0.0191
    162  CZ3        6.1970   51.3720   -9.0910 C.ar  407  TRP407      0.0001
    163  CH2        7.1290   50.3320   -9.0320 C.ar  407  TRP407      0.0015
    164  N         -2.6290   55.3200  -18.6900 N.3   422  TRP422     -0.1241
    165  CA        -1.4890   54.7560  -17.9830 C.3   422  TRP422      0.1605
    166  C         -0.9500   53.5840  -18.7960 C.2   422  TRP422      0.2264
    167  O         -1.6160   52.5570  -18.9220 O.2   422  TRP422     -0.2867
    168  CB        -1.9350   54.2210  -16.6190 C.3   422  TRP422      0.0550
    169  CG        -0.8200   53.6940  -15.6990 C.ar  422  TRP422      0.0003
    170  CD1       -0.5810   52.3920  -15.3620 C.ar  422  TRP422      0.0946
    171  CD2        0.1140   54.4800  -14.9500 C.ar  422  TRP422      0.0152
    172  NE1        0.4720   52.3230  -14.4740 N.ar  422  TRP422     -0.2442
    173  CE2        0.9110   53.5930  -14.2040 C.ar  422  TRP422      0.0810
    174  CE3        0.3800   55.8590  -14.8690 C.ar  422  TRP422      0.0012
    175  CZ2        1.9350   54.0270  -13.3380 C.ar  422  TRP422      0.0191
    176  CZ3        1.3910   56.3010  -14.0260 C.ar  422  TRP422      0.0001
    177  CH2        2.1690   55.3760  -13.2650 C.ar  422  TRP422      0.0015
@<TRIPOS>BOND
     1   167   166    2
     2   166   165    1
     3   164   165    1
     4   165   168    1
     5   168   169    1
     6   169   170   ar
     7   169   171   ar
     8   170   172   ar
     9   171   174   ar
    10   171   173   ar
    11   174   176   ar
    12   172   173   ar
    13   173   175   ar
    14   176   177   ar
    15   175   177   ar
    16   153   152    2
    17   152   151    1
    18   151   150    1
    19   151   154    1
    20   154   155    1
    21   156   155   ar
    22   156   158   ar
    23   155   157   ar
    24   158   159   ar
    25   157   159   ar
    26   157   160   ar
    27   159   161   ar
    28   160   162   ar
    29   161   163   ar
    30   162   163   ar
    31   106   107    1
    32   107   108    1
    33   108   109    2
    34   108   110   am
    35    46    47    1
    36   117   118    1
    37   117   120    1
    38   117   116    1
    39   119   118    2
    40   110   111    1
    41    47    50    1
    42    47    48    1
    43   120   121    1
    44    64    65    1
    45    64    63    1
    46   116   122    1
    47    37    35   ar
    48    48    49    2
    49    67    65   am
    50    59    60    1
    51    65    66    2
    52   111   112    1
    53   111   114    1
    54    51    52    1
    55    60    63    1
    56    60    61    1
    57   115   114    1
    58    35    36   ar
    59    35    34    1
    60   121   122    1
    61   112   113    2
    62    34    31    1
    63    93    91    1
    64    52    53    1
    65    52    55    1
    66    61    62    2
    67    22    21    2
    68    31    32    1
    69    31    30    1
    70    53    54    2
    71    90    91    1
    72    90    92    1
    73    90    87    1
    74    12    11    1
    75    18    17    1
    76    55    56    1
    77    45    43   ar
    78    32    33    2
    79    21    30   am
    80    21    20    1
    81    17    14    1
    82    88    87    1
    83    88    89    2
    84    97    96    2
    85    43    42    1
    86    43    44   ar
    87    87    86    1
    88    42    39    1
    89    11    10   ar
    90    11     9   ar
    91   105   104    1
    92    10     8   ar
    93    57    56    1
    94    40    39    1
    95    40    41    2
    96    56    58    1
    97    39    38    1
    98    19    20    1
    99    19    15   am
   100    14    15    1
   101    14    13    1
   102   101   104    1
   103   101   102    1
   104   101   100    1
   105     9     7   ar
   106    20    23    1
   107    96   100   am
   108    96    95    1
   109    15    16    2
   110   102   103    2
   111     8     6   ar
   112    23    24    1
   113   130   132   ar
   114   130   128   ar
   115    85    83   am
   116    98    95    1
   117    98    99    1
   118    95    94    1
   119     7     6   ar
   120    13     3   am
   121     4     3    2
   122    82    83    1
   123    82    79    1
   124    83    84    2
   125   132   131   ar
   126     6     5    1
   127     3     2    1
   128   128   127    1
   129   128   129   ar
   130   127   124    1
   131    24    25   ar
   132    24    26   ar
   133    25    27   ar
   134   123   124    1
   135   131   129   ar
   136     5     2    1
   137   124   125    1
   138    80    81    2
   139    80    79    1
   140    79    78    1
   141     2     1    1
   142   149   147   am
   143    26    28   ar
   144    77    75   ar
   145    77    76   ar
   146    27    29   ar
   147   148   147    2
   148   147   146    1
   149    75    73   ar
   150   141   140    1
   151   146   143    1
   152   125   126    2
   153    76    74   ar
   154    28    29   ar
   155    73    74   ar
   156    73    72    1
   157   140   139    1
   158   143   144    1
   159   143   142    1
   160    72    69    1
   161   144   145    2
   162    69    68    1
   163    69    70    1
   164   138   139    1
   165   138   137    1
   166    71    70    2
   167   133   134    1
   168   137   134    1
   169   134   135    1
   170   135   136    2
