@<TRIPOS>MOLECULE
tmp/1rfiC01.pdb
 194 188 0 0 0
SMALL
GASTEIGER

@<TRIPOS>ATOM
      1  N         13.5250   55.4650    2.9050 N.3    43  TYR43      -0.1227
      2  CA        13.7190   54.5270    1.8190 C.3    43  TYR43       0.1736
      3  C         14.1330   55.3310    0.5900 C.2    43  TYR43       0.2596
      4  O         15.1960   55.0940    0.0280 O.2    43  TYR43      -0.2718
      5  CB        12.4110   53.7810    1.5810 C.3    43  TYR43       0.0548
      6  CG        12.4020   52.8360    0.4210 C.ar   43  TYR43      -0.0200
      7  CD1       13.4620   51.9480    0.1980 C.ar   43  TYR43      -0.0009
      8  CD2       11.3220   52.8000   -0.4420 C.ar   43  TYR43      -0.0009
      9  CE1       13.4390   51.0630   -0.8780 C.ar   43  TYR43       0.0417
     10  CE2       11.2880   51.9310   -1.5140 C.ar   43  TYR43       0.0417
     11  CZ        12.3410   51.0650   -1.7300 C.ar   43  TYR43       0.1957
     12  OH        12.2840   50.2060   -2.8050 O.3    43  TYR43      -0.2866
     13  N         13.3060   56.3030    0.1910 N.am   44  CYS44      -0.1956
     14  CA        13.6270   57.1620   -0.9460 C.3    44  CYS44       0.1843
     15  C         13.9360   58.5760   -0.5040 C.2    44  CYS44       0.2625
     16  O         13.2800   59.1140    0.4030 O.2    44  CYS44      -0.2714
     17  CB        12.4700   57.2000   -1.9530 C.3    44  CYS44       0.0997
     18  SG        12.0830   55.5950   -2.6870 S.3    44  CYS44      -0.0797
     19  N         14.9400   59.1730   -1.1480 N.am   45  PHE45      -0.1960
     20  CA        15.3750   60.5360   -0.8580 C.3    45  PHE45       0.1771
     21  C         15.5420   61.3530   -2.1380 C.2    45  PHE45       0.2619
     22  O         16.1080   60.8810   -3.1260 O.2    45  PHE45      -0.2715
     23  CB        16.7510   60.5620   -0.1730 C.3    45  PHE45       0.0574
     24  CG        16.8160   59.8590    1.1410 C.ar   45  PHE45      -0.0200
     25  CD1       16.9360   58.4830    1.2030 C.ar   45  PHE45      -0.0042
     26  CD2       16.8000   60.5790    2.3230 C.ar   45  PHE45      -0.0042
     27  CE1       17.0240   57.8320    2.4290 C.ar   45  PHE45      -0.0003
     28  CE2       16.8980   59.9370    3.5420 C.ar   45  PHE45      -0.0003
     29  CZ        17.0010   58.5600    3.5920 C.ar   45  PHE45      -0.0000
     30  N         15.0710   62.5900   -2.0920 N.am   46  ASP46      -0.1971
     31  CA        15.4650   63.6170   -3.0330 C.3    46  ASP46       0.1709
     32  C         16.2600   64.6490   -2.2420 C.2    46  ASP46       0.2293
     33  O         15.6960   65.5530   -1.6460 O.2    46  ASP46      -0.2864
     34  CB        14.2380   64.2630   -3.6560 C.3    46  ASP46       0.1436
     35  CG        14.5950   65.3550   -4.6660 C.2    46  ASP46       0.3671
     36  OD1       15.6740   66.0020   -4.5100 O.co2  46  ASP46      -0.2456
     37  OD2       13.8400   65.6290   -5.6380 O.co2  46  ASP46      -0.2456
     38  N         20.3560   51.8150    0.1590 N.3    69  ASP69      -0.1239
     39  CA        20.7440   51.6980   -1.2520 C.3    69  ASP69       0.1674
     40  C         22.0810   50.9980   -1.4510 C.2    69  ASP69       0.2266
     41  O         23.0070   51.1600   -0.6480 O.2    69  ASP69      -0.2867
     42  CB        20.7880   53.0770   -1.9200 C.3    69  ASP69       0.1410
     43  CG        19.4130   53.7410   -1.9770 C.2    69  ASP69       0.3668
     44  OD1       18.4140   53.0390   -2.2310 O.co2  69  ASP69      -0.2456
     45  OD2       19.2340   54.9600   -1.7810 O.co2  69  ASP69      -0.2456
     46  N         22.6100   52.8290   -7.2360 N.3    73  ALA73      -0.1245
     47  CA        21.6610   53.6470   -6.4720 C.3    73  ALA73       0.1562
     48  C         22.3600   54.2880   -5.2790 C.2    73  ALA73       0.2260
     49  O         22.1570   55.4630   -4.9960 O.2    73  ALA73      -0.2867
     50  CB        20.4540   52.8120   -6.0220 C.3    73  ALA73       0.0290
     51  N         24.4070   56.9920   -6.7210 N.3    76  HIS76      -0.1226
     52  CA        23.5390   58.0980   -7.1170 C.3    76  HIS76       0.1752
     53  C         23.2260   59.0020   -5.9320 C.2    76  HIS76       0.2595
     54  O         23.3180   60.2150   -6.0350 O.2    76  HIS76      -0.2718
     55  CB        22.2400   57.5750   -7.7520 C.3    76  HIS76       0.0759
     56  CG        21.3380   58.6550   -8.2780 C.ar   76  HIS76       0.0818
     57  ND1       20.0600   58.8610   -7.7980 N.ar   76  HIS76      -0.2268
     58  CD2       21.5230   59.5770   -9.2560 C.ar   76  HIS76       0.1154
     59  CE1       19.5010   59.8660   -8.4490 C.ar   76  HIS76       0.1986
     60  NE2       20.3670   60.3190   -9.3380 N.ar   76  HIS76      -0.2212
     61  N         22.8590   58.3920   -4.8090 N.am   77  LEU77      -0.1980
     62  CA        22.5280   59.1320   -3.5970 C.3    77  LEU77       0.1596
     63  C         23.7490   59.8980   -3.0800 C.2    77  LEU77       0.2287
     64  O         23.6420   61.0520   -2.6450 O.2    77  LEU77      -0.2864
     65  CB        22.0010   58.1630   -2.5330 C.3    77  LEU77       0.0297
     66  CG        21.4070   58.7500   -1.2550 C.3    77  LEU77       0.0022
     67  CD1       20.0940   59.4710   -1.5210 C.3    77  LEU77       0.0001
     68  CD2       21.2110   57.6340   -0.2350 C.3    77  LEU77       0.0001
     69  N         24.0580   62.8180   -5.2350 N.3    80  GLN80      -0.1245
     70  CA        23.0750   63.8120   -4.7980 C.3    80  GLN80       0.1566
     71  C         23.5900   64.5930   -3.5850 C.2    80  GLN80       0.2260
     72  O         23.3740   65.7920   -3.4680 O.2    80  GLN80      -0.2867
     73  CB        21.7780   63.1210   -4.3590 C.3    80  GLN80       0.0367
     74  CG        20.8520   62.6110   -5.4360 C.3    80  GLN80       0.0905
     75  CD        19.4310   62.4550   -4.8940 C.2    80  GLN80       0.2608
     76  OE1       18.7450   63.4510   -4.6390 O.2    80  GLN80      -0.2717
     77  NE2       19.0030   61.2140   -4.6890 N.am   80  GLN80      -0.0878
     78  N         13.0380   50.4740    5.0650 N.3   102  HIS102     -0.1241
     79  CA        11.7470   51.1170    4.8210 C.3   102  HIS102      0.1621
     80  C         11.2880   52.1020    5.9100 C.2   102  HIS102      0.2264
     81  O         10.4130   52.9260    5.6690 O.2   102  HIS102     -0.2867
     82  CB        10.6670   50.0670    4.5190 C.3   102  HIS102      0.0745
     83  CG         9.4720   50.6230    3.8040 C.ar  102  HIS102      0.0817
     84  ND1        8.1910   50.5290    4.3050 N.ar  102  HIS102     -0.2268
     85  CD2        9.3670   51.2920    2.6300 C.ar  102  HIS102      0.1154
     86  CE1        7.3500   51.1270    3.4800 C.ar  102  HIS102      0.1986
     87  NE2        8.0380   51.5990    2.4560 N.ar  102  HIS102     -0.2212
     88  N          8.0720   59.1270    2.2000 N.3   122  ASN122     -0.1240
     89  CA         9.4180   59.2300    1.6410 C.3   122  ASN122      0.1653
     90  C          9.8420   60.6830    1.6160 C.2   122  ASN122      0.2266
     91  O          8.9940   61.5970    1.6790 O.2   122  ASN122     -0.2867
     92  CB         9.4760   58.6470    0.2220 C.3   122  ASN122      0.1155
     93  CG         9.2950   57.1410    0.2010 C.2   122  ASN122      0.2627
     94  OD1       10.2250   56.3910    0.5160 O.2   122  ASN122     -0.2716
     95  ND2        8.0890   56.6850   -0.1670 N.am  122  ASN122     -0.0877
     96  N         10.5940   62.9080   -0.6390 N.3   124  ILE124     -0.1245
     97  CA        10.4920   63.3480   -2.0240 C.3   124  ILE124      0.1561
     98  C          9.2140   64.1620   -2.1120 C.2   124  ILE124      0.2260
     99  O          8.3010   63.9780   -1.3010 O.2   124  ILE124     -0.2867
    100  CB        10.4560   62.1450   -2.9970 C.3   124  ILE124      0.0252
    101  CG1        9.1680   61.3270   -2.8120 C.3   124  ILE124      0.0019
    102  CG2       11.6950   61.2320   -2.8110 C.3   124  ILE124      0.0019
    103  CD1        9.0050   60.2040   -3.8250 C.3   124  ILE124      0.0001
    104  N         -0.1570   50.2070    1.4360 N.3   234  SER234     -0.1202
    105  CA         0.0040   50.7270    0.1000 C.3   234  SER234      0.2020
    106  C          0.8530   49.7990   -0.7600 C.2   234  SER234      0.2619
    107  O          1.0740   50.0610   -1.9400 O.2   234  SER234     -0.2717
    108  CB         0.6020   52.1470    0.1640 C.3   234  SER234      0.2103
    109  OG         1.9270   52.1290    0.6720 O.3   234  SER234     -0.2182
    110  N          1.3440   48.7190   -0.1690 N.am  235  SER235     -0.1951
    111  CA         2.0740   47.7130   -0.9330 C.3   235  SER235      0.1924
    112  C          1.7170   46.3190   -0.4100 C.2   235  SER235      0.2314
    113  O          1.3240   46.1660    0.7450 O.2   235  SER235     -0.2863
    114  CB         3.5730   47.9730   -0.8520 C.3   235  SER235      0.2116
    115  OG         4.3330   46.8640   -1.3180 O.3   235  SER235     -0.2180
    116  N         -0.7930   58.3490  -11.8930 N.3   280  PRO280     -0.2116
    117  CA         0.5470   58.4340  -11.2800 C.3   280  PRO280      0.1372
    118  C          0.5690   58.2460   -9.7570 C.2   280  PRO280      0.2244
    119  O          1.6290   57.9560   -9.1880 O.2   280  PRO280     -0.2868
    120  CB         1.0390   59.8360  -11.6720 C.3   280  PRO280      0.0268
    121  CG         0.2700   60.1370  -12.9560 C.3   280  PRO280      0.0207
    122  CD        -1.1120   59.5420  -12.6990 C.3   280  PRO280      0.0892
    123  N          1.9780   55.0240   -8.9900 N.3   283  GLY283     -0.1210
    124  CA         3.4180   54.8380   -8.8980 C.3   283  GLY283      0.1956
    125  C          3.9130   54.5640   -7.4770 C.2   283  GLY283      0.2612
    126  O          5.0210   54.0560   -7.2900 O.2   283  GLY283     -0.2717
    127  N          3.0950   54.9060   -6.4760 N.am  284  SER284     -0.1952
    128  CA         3.4230   54.6640   -5.0630 C.3   284  SER284      0.1924
    129  C          2.5730   53.5410   -4.4330 C.2   284  SER284      0.2314
    130  O          2.5080   53.3830   -3.2000 O.2   284  SER284     -0.2863
    131  CB         3.2730   55.9620   -4.2630 C.3   284  SER284      0.2116
    132  OG         4.2260   56.9450   -4.6720 O.3   284  SER284     -0.2180
    133  N          2.8080   49.9020   -5.3620 N.3   286  PRO286     -0.2116
    134  CA         3.5420   48.9840   -6.2440 C.3   286  PRO286      0.1372
    135  C          3.0830   47.5190   -6.2370 C.2   286  PRO286      0.2244
    136  O          3.9360   46.6300   -6.1870 O.2   286  PRO286     -0.2868
    137  CB         4.9960   49.0940   -5.7440 C.3   286  PRO286      0.0268
    138  CG         4.8990   49.5180   -4.3340 C.3   286  PRO286      0.0207
    139  CD         3.5280   50.1670   -4.1050 C.3   286  PRO286      0.0892
    140  N         -0.5880   56.5720    1.4350 N.3   318  HIS318     -0.1241
    141  CA         0.7370   56.0180    1.5860 C.3   318  HIS318      0.1621
    142  C          0.9890   55.7350    3.0680 C.2   318  HIS318      0.2264
    143  O          1.9850   55.1200    3.4270 O.2   318  HIS318     -0.2867
    144  CB         1.7990   56.9550    1.0060 C.3   318  HIS318      0.0745
    145  CG         3.1580   56.3370    0.9260 C.ar  318  HIS318      0.0817
    146  ND1        4.1090   56.4950    1.9170 N.ar  318  HIS318     -0.2268
    147  CD2        3.7250   55.5520   -0.0200 C.ar  318  HIS318      0.1154
    148  CE1        5.2050   55.8340    1.5790 C.ar  318  HIS318      0.1986
    149  NE2        4.9950   55.2480    0.4130 N.ar  318  HIS318     -0.2212
    150  N          0.2480   53.6020    6.4240 N.3   320  LYS320     -0.1245
    151  CA        -0.1410   52.2260    6.7160 C.3   320  LYS320      0.1561
    152  C         -0.6140   52.2010    8.1700 C.2   320  LYS320      0.2260
    153  O          0.0250   52.7680    9.0570 O.2   320  LYS320     -0.2867
    154  CB         1.0100   51.2180    6.5030 C.3   320  LYS320      0.0271
    155  CG         1.8240   51.3840    5.2110 C.3   320  LYS320      0.0035
    156  CD         2.7860   52.5800    5.3020 C.3   320  LYS320      0.0206
    157  CE         3.8320   52.5920    4.1790 C.3   320  LYS320      0.1093
    158  NZ         3.2480   52.7170    2.8180 N.3   320  LYS320     -0.1314
    159  N          4.0370   47.6780    5.3390 N.3   341  ASN341     -0.1240
    160  CA         2.9600   47.3060    4.4350 C.3   341  ASN341      0.1653
    161  C          2.5550   45.8460    4.6650 C.2   341  ASN341      0.2266
    162  O          3.0720   45.1900    5.5670 O.2   341  ASN341     -0.2867
    163  CB         3.4000   47.5030    2.9880 C.3   341  ASN341      0.1155
    164  CG         3.5360   48.9710    2.6170 C.2   341  ASN341      0.2627
    165  OD1        2.5450   49.7040    2.5660 O.2   341  ASN341     -0.2716
    166  ND2        4.7570   49.4040    2.3570 N.am  341  ASN341     -0.0877
    167  N          0.1320   48.1170  -10.4580 N.3   407  TRP407     -0.1241
    168  CA         0.8950   49.2010  -11.0650 C.3   407  TRP407      0.1605
    169  C          1.5780   48.9540  -12.4160 C.2   407  TRP407      0.2264
    170  O          1.9670   49.9220  -13.0640 O.2   407  TRP407     -0.2867
    171  CB         1.9110   49.7830  -10.0680 C.3   407  TRP407      0.0550
    172  CG         3.2110   49.0350   -9.8860 C.ar  407  TRP407      0.0003
    173  CD1        3.4130   47.6860   -9.9550 C.ar  407  TRP407      0.0946
    174  CD2        4.4930   49.6110   -9.5790 C.ar  407  TRP407      0.0152
    175  NE1        4.7340   47.3910   -9.7110 N.ar  407  TRP407     -0.2442
    176  CE2        5.4170   48.5540   -9.4750 C.ar  407  TRP407      0.0810
    177  CE3        4.9490   50.9200   -9.3610 C.ar  407  TRP407      0.0012
    178  CZ2        6.7660   48.7610   -9.1830 C.ar  407  TRP407      0.0191
    179  CZ3        6.2840   51.1240   -9.0700 C.ar  407  TRP407      0.0001
    180  CH2        7.1800   50.0480   -8.9870 C.ar  407  TRP407      0.0015
    181  N         -2.6370   55.2820  -18.5120 N.3   422  TRP422     -0.1241
    182  CA        -1.4990   54.7460  -17.7930 C.3   422  TRP422      0.1605
    183  C         -0.9880   53.5610  -18.5900 C.2   422  TRP422      0.2264
    184  O         -1.6910   52.5690  -18.7540 O.2   422  TRP422     -0.2867
    185  CB        -1.9380   54.2910  -16.3920 C.3   422  TRP422      0.0550
    186  CG        -0.8640   53.6750  -15.5230 C.ar  422  TRP422      0.0003
    187  CD1       -0.6930   52.3570  -15.2550 C.ar  422  TRP422      0.0946
    188  CD2        0.1260   54.3680  -14.7570 C.ar  422  TRP422      0.0152
    189  NE1        0.3660   52.1790  -14.3980 N.ar  422  TRP422     -0.2442
    190  CE2        0.8880   53.4010  -14.0800 C.ar  422  TRP422      0.0810
    191  CE3        0.4650   55.7110  -14.5990 C.ar  422  TRP422      0.0012
    192  CZ2        1.9600   53.7310  -13.2470 C.ar  422  TRP422      0.0191
    193  CZ3        1.5340   56.0410  -13.7760 C.ar  422  TRP422      0.0001
    194  CH2        2.2640   55.0520  -13.1040 C.ar  422  TRP422      0.0015
@<TRIPOS>BOND
     1   184   183    2
     2   183   182    1
     3   181   182    1
     4   182   185    1
     5   185   186    1
     6   186   187   ar
     7   186   188   ar
     8   187   189   ar
     9   188   191   ar
    10   188   190   ar
    11   191   193   ar
    12   189   190   ar
    13   190   192   ar
    14   193   194   ar
    15   192   194   ar
    16   170   169    2
    17   121   122    1
    18   121   120    1
    19   122   116    1
    20   169   168    1
    21   116   117    1
    22   120   117    1
    23   117   118    1
    24   168   167    1
    25   168   171    1
    26   171   172    1
    27   173   172   ar
    28   173   175   ar
    29   172   174   ar
    30   118   119    2
    31   175   176   ar
    32   174   176   ar
    33   174   177   ar
    34   176   178   ar
    35   177   179   ar
    36    60    58   ar
    37    60    59   ar
    38    58    56   ar
    39   178   180   ar
    40   179   180   ar
    41   123   124    1
    42   124   125    1
    43    59    57   ar
    44    56    57   ar
    45    56    55    1
    46    55    52    1
    47   125   126    2
    48   125   127   am
    49    46    47    1
    50    52    51    1
    51    52    53    1
    52   127   128    1
    53    47    50    1
    54    47    48    1
    55   134   135    1
    56   134   137    1
    57   134   133    1
    58   135   136    2
    59    54    53    2
    60    53    61   am
    61   137   138    1
    62    37    35   ar
    63    74    75    1
    64    74    73    1
    65   133   139    1
    66    48    49    2
    67    69    70    1
    68   128   129    1
    69   128   131    1
    70    75    77   am
    71    75    76    2
    72    61    62    1
    73    70    73    1
    74    70    71    1
    75   132   131    1
    76    35    36   ar
    77    35    34    1
    78   129   130    2
    79   138   139    1
    80   103   101    1
    81    34    31    1
    82    62    63    1
    83    62    65    1
    84    71    72    2
    85    22    21    2
    86    63    64    2
    87    31    32    1
    88    31    30    1
    89   100   101    1
    90   100   102    1
    91   100    97    1
    92    12    11    1
    93    18    17    1
    94    65    66    1
    95    32    33    2
    96    44    43   ar
    97    21    30   am
    98    21    20    1
    99    98    97    1
   100    98    99    2
   101    97    96    1
   102    43    42    1
   103    43    45   ar
   104    17    14    1
   105   107   106    2
   106    42    39    1
   107    11    10   ar
   108    11     9   ar
   109    67    66    1
   110    10     8   ar
   111    40    39    1
   112    40    41    2
   113   115   114    1
   114    66    68    1
   115    39    38    1
   116    19    20    1
   117    19    15   am
   118    14    15    1
   119    14    13    1
   120   111   114    1
   121   111   112    1
   122   111   110    1
   123     9     7   ar
   124    20    23    1
   125   106   110   am
   126   106   105    1
   127    15    16    2
   128     8     6   ar
   129   112   113    2
   130    23    24    1
   131    95    93   am
   132   147   149   ar
   133   147   145   ar
   134     4     3    2
   135   105   108    1
   136   105   104    1
   137   108   109    1
   138    13     3   am
   139     7     6   ar
   140    93    92    1
   141    93    94    2
   142    92    89    1
   143   149   148   ar
   144     6     5    1
   145     3     2    1
   146   145   144    1
   147   145   146   ar
   148   144   141    1
   149    24    25   ar
   150    24    26   ar
   151    25    27   ar
   152   140   141    1
   153   148   146   ar
   154     5     2    1
   155   141   142    1
   156    90    89    1
   157    90    91    2
   158    89    88    1
   159     2     1    1
   160    26    28   ar
   161   166   164   am
   162    27    29   ar
   163    87    85   ar
   164    87    86   ar
   165   165   164    2
   166   164   163    1
   167    85    83   ar
   168   158   157    1
   169   163   160    1
   170   142   143    2
   171    86    84   ar
   172    28    29   ar
   173    83    84   ar
   174    83    82    1
   175   157   156    1
   176   160   161    1
   177   160   159    1
   178    82    79    1
   179   161   162    2
   180    79    78    1
   181    79    80    1
   182   155   156    1
   183   155   154    1
   184    81    80    2
   185   150   151    1
   186   154   151    1
   187   151   152    1
   188   152   153    2
