@<TRIPOS>MOLECULE
tmp/1rfiD01.pdb
 160 154 0 0 0
SMALL
GASTEIGER

@<TRIPOS>ATOM
      1  N          1.7820   43.3260   60.6810 N.3    43  TYR43      -0.1227
      2  CA         1.6300   42.0060   61.3010 C.3    43  TYR43       0.1736
      3  C          1.1670   42.1950   62.7430 C.2    43  TYR43       0.2596
      4  O          0.0870   41.7620   63.0990 O.2    43  TYR43      -0.2718
      5  CB         2.9580   41.2290   61.2510 C.3    43  TYR43       0.0548
      6  CG         2.9380   39.8360   61.8890 C.ar   43  TYR43      -0.0200
      7  CD1        1.8530   38.9660   61.7100 C.ar   43  TYR43      -0.0009
      8  CD2        4.0190   39.3880   62.6590 C.ar   43  TYR43      -0.0009
      9  CE1        1.8390   37.6870   62.3010 C.ar   43  TYR43       0.0417
     10  CE2        4.0210   38.1220   63.2330 C.ar   43  TYR43       0.0417
     11  CZ         2.9290   37.2770   63.0610 C.ar   43  TYR43       0.1957
     12  OH         2.9450   36.0250   63.6420 O.3    43  TYR43      -0.2866
     13  N          1.9890   42.8570   63.5530 N.am   44  CYS44      -0.1956
     14  CA         1.6560   43.1780   64.9340 C.3    44  CYS44       0.1843
     15  C          1.3650   44.6540   65.1070 C.2    44  CYS44       0.2625
     16  O          2.0610   45.5160   64.5310 O.2    44  CYS44      -0.2714
     17  CB         2.8150   42.8110   65.8780 C.3    44  CYS44       0.0997
     18  SG         3.2490   41.0570   65.8910 S.3    44  CYS44      -0.0797
     19  N          0.3680   44.9310   65.9400 N.am   45  PHE45      -0.1960
     20  CA        -0.1030   46.2770   66.2070 C.3    45  PHE45       0.1771
     21  C         -0.2560   46.4780   67.7100 C.2    45  PHE45       0.2619
     22  O         -0.7800   45.6090   68.4060 O.2    45  PHE45      -0.2715
     23  CB        -1.4960   46.5040   65.6090 C.3    45  PHE45       0.0574
     24  CG        -1.5690   46.3950   64.1160 C.ar   45  PHE45      -0.0200
     25  CD1       -1.7170   45.1560   63.5020 C.ar   45  PHE45      -0.0042
     26  CD2       -1.5380   47.5380   63.3190 C.ar   45  PHE45      -0.0042
     27  CE1       -1.8040   45.0510   62.1200 C.ar   45  PHE45      -0.0003
     28  CE2       -1.6340   47.4400   61.9350 C.ar   45  PHE45      -0.0003
     29  CZ        -1.7780   46.1920   61.3350 C.ar   45  PHE45      -0.0000
     30  N          0.2000   47.6250   68.1980 N.am   46  ASP46      -0.1971
     31  CA        -0.1510   48.0930   69.5180 C.3    46  ASP46       0.1709
     32  C         -0.9370   49.3660   69.2220 C.2    46  ASP46       0.2293
     33  O         -0.3500   50.3900   68.8590 O.2    46  ASP46      -0.2864
     34  CB         1.1130   48.4000   70.3390 C.3    46  ASP46       0.1436
     35  CG         0.7950   48.9510   71.7380 C.2    46  ASP46       0.3671
     36  OD1       -0.3160   49.4870   71.9410 O.co2  46  ASP46      -0.2456
     37  OD2        1.6080   48.9150   72.6950 O.co2  46  ASP46      -0.2456
     38  N         -4.9830   38.7270   61.6430 N.3    69  ASP69      -0.1239
     39  CA        -5.3620   38.0640   62.8870 C.3    69  ASP69       0.1674
     40  C         -6.6900   37.3340   62.7580 C.2    69  ASP69       0.2266
     41  O         -7.6220   37.8260   62.1010 O.2    69  ASP69      -0.2867
     42  CB        -5.5080   39.0780   64.0200 C.3    69  ASP69       0.1410
     43  CG        -4.1700   39.5250   64.6160 C.2    69  ASP69       0.3668
     44  OD1       -3.0870   39.3230   64.0050 O.co2  69  ASP69      -0.2456
     45  OD2       -4.1290   40.1080   65.7250 O.co2  69  ASP69      -0.2456
     46  N         -8.9990   40.4060   70.1570 N.3    76  HIS76      -0.1241
     47  CA        -8.0860   41.2340   70.9400 C.3    76  HIS76       0.1621
     48  C         -7.7510   42.5180   70.1800 C.2    76  HIS76       0.2264
     49  O         -7.6700   43.5880   70.7630 O.2    76  HIS76      -0.2867
     50  CB        -6.8090   40.4670   71.3110 C.3    76  HIS76       0.0745
     51  CG        -5.8050   41.2960   72.0530 C.ar   76  HIS76       0.0817
     52  ND1       -5.9120   41.5650   73.4030 N.ar   76  HIS76      -0.2268
     53  CD2       -4.6880   41.9370   71.6290 C.ar   76  HIS76       0.1154
     54  CE1       -4.9030   42.3340   73.7770 C.ar   76  HIS76       0.1986
     55  NE2       -4.1450   42.5720   72.7210 N.ar   76  HIS76      -0.2212
     56  N         -8.7260   46.5240   71.1480 N.3    80  GLN80      -0.1245
     57  CA        -7.7430   47.6100   71.1720 C.3    80  GLN80       0.1566
     58  C         -8.2420   48.8250   70.3760 C.2    80  GLN80       0.2260
     59  O         -8.1210   49.9610   70.8220 O.2    80  GLN80      -0.2867
     60  CB        -6.4280   47.1560   70.5440 C.3    80  GLN80       0.0367
     61  CG        -5.5210   46.3160   71.4030 C.3    80  GLN80       0.0905
     62  CD        -4.1520   46.1720   70.7570 C.2    80  GLN80       0.2608
     63  OE1       -3.3460   47.1020   70.7920 O.2    80  GLN80      -0.2717
     64  NE2       -3.9030   45.0200   70.1330 N.am   80  GLN80      -0.0878
     65  N          2.2370   39.5500   56.6050 N.3   102  HIS102     -0.1241
     66  CA         3.4940   40.0540   57.1620 C.3   102  HIS102      0.1621
     67  C          3.9290   41.4390   56.6130 C.2   102  HIS102      0.2264
     68  O          4.7490   42.1140   57.2240 O.2   102  HIS102     -0.2867
     69  CB         4.6200   39.0100   56.9960 C.3   102  HIS102      0.0745
     70  CG         5.8170   39.2580   57.8710 C.ar  102  HIS102      0.0817
     71  ND1        7.0830   39.4490   57.3610 N.ar  102  HIS102     -0.2268
     72  CD2        5.9460   39.3180   59.2190 C.ar  102  HIS102      0.1154
     73  CE1        7.9340   39.6520   58.3520 C.ar  102  HIS102      0.1986
     74  NE2        7.2750   39.5550   59.4910 N.ar  102  HIS102     -0.2212
     75  N          7.0750   46.2160   62.7840 N.3   122  ASN122     -0.1240
     76  CA         5.7160   46.0840   63.3390 C.3   122  ASN122      0.1653
     77  C          5.3200   47.4010   63.9890 C.2   122  ASN122      0.2266
     78  O          6.1810   48.2230   64.2760 O.2   122  ASN122     -0.2867
     79  CB         5.6460   44.9700   64.3930 C.3   122  ASN122      0.1155
     80  CG         5.7820   43.5990   63.7870 C.2   122  ASN122      0.2627
     81  OD1        4.8300   43.0730   63.2120 O.2   122  ASN122     -0.2716
     82  ND2        6.9760   43.0240   63.8750 N.am  122  ASN122     -0.0877
     83  N          4.6660   48.3390   66.9530 N.3   124  ILE124     -0.1245
     84  CA         4.8290   48.2590   68.3980 C.3   124  ILE124      0.1561
     85  C          6.0950   49.0220   68.7900 C.2   124  ILE124      0.2260
     86  O          6.9870   49.2160   67.9550 O.2   124  ILE124     -0.2867
     87  CB         4.9050   46.7870   68.8770 C.3   124  ILE124      0.0252
     88  CG1        6.1630   46.1030   68.3080 C.3   124  ILE124      0.0019
     89  CG2        3.6440   46.0520   68.4700 C.3   124  ILE124      0.0019
     90  CD1        6.2160   44.5660   68.5030 C.3   124  ILE124      0.0001
     91  N         15.4920   37.9030   59.8610 N.3   238  SER238     -0.1202
     92  CA        15.2960   37.7910   61.3020 C.3   238  SER238      0.2020
     93  C         14.4020   36.6180   61.6930 C.2   238  SER238      0.2619
     94  O         14.1240   36.4250   62.8590 O.2   238  SER238     -0.2717
     95  CB        14.7680   39.1130   61.9090 C.3   238  SER238      0.2103
     96  OG        13.5000   39.4850   61.3870 O.3   238  SER238     -0.2182
     97  N         13.9640   35.8240   60.7280 N.am  239  SER239     -0.1951
     98  CA        13.2170   34.6170   61.0750 C.3   239  SER239      0.1924
     99  C         13.5580   33.5690   60.0440 C.2   239  SER239      0.2314
    100  O         13.8360   33.9090   58.9040 O.2   239  SER239     -0.2863
    101  CB        11.7100   34.9050   61.1280 C.3   239  SER239      0.2116
    102  OG        10.9220   33.7180   61.1830 O.3   239  SER239     -0.2180
    103  N         13.1890   37.9800   71.3380 N.3   288  GLY288     -0.1210
    104  CA        11.7420   37.8570   71.2110 C.3   288  GLY288      0.1956
    105  C         11.2550   38.1820   69.7970 C.2   288  GLY288      0.2612
    106  O         10.1350   37.8220   69.4090 O.2   288  GLY288     -0.2717
    107  N         12.1010   38.8540   69.0220 N.am  289  SER289     -0.1952
    108  CA        11.7770   39.2160   67.6430 C.3   289  SER289      0.1924
    109  C         12.6790   38.4920   66.6660 C.2   289  SER289      0.2314
    110  O         12.8240   38.9260   65.5250 O.2   289  SER289     -0.2863
    111  CB        11.9270   40.7160   67.4270 C.3   289  SER289      0.2116
    112  OG        11.1450   41.4230   68.3570 O.3   289  SER289     -0.2180
    113  N         12.3940   34.7870   66.0860 N.3   291  PRO291     -0.2116
    114  CA        11.6810   33.5850   66.5480 C.3   291  PRO291      0.1372
    115  C         12.1100   32.2730   65.8660 C.2   291  PRO291      0.2244
    116  O         11.2340   31.5290   65.4390 O.2   291  PRO291     -0.2868
    117  CB        10.2350   33.9160   66.2040 C.3   291  PRO291      0.0268
    118  CG        10.3640   34.7160   64.9190 C.3   291  PRO291      0.0207
    119  CD        11.6190   35.5470   65.0860 C.3   291  PRO291      0.0892
    120  N         15.8750   43.7150   62.4900 N.3   323  HIS323     -0.1241
    121  CA        14.5550   43.2430   62.1710 C.3   323  HIS323      0.1621
    122  C         14.3040   43.5650   60.6940 C.2   323  HIS323      0.2264
    123  O         13.3610   43.0650   60.0910 O.2   323  HIS323     -0.2867
    124  CB        13.5040   43.8660   63.0890 C.3   323  HIS323      0.0745
    125  CG        12.1440   43.2750   62.9150 C.ar  323  HIS323      0.0817
    126  ND1       11.2220   43.7690   62.0140 N.ar  323  HIS323     -0.2268
    127  CD2       11.5570   42.2090   63.5070 C.ar  323  HIS323      0.1154
    128  CE1       10.1200   43.0400   62.0730 C.ar  323  HIS323      0.1986
    129  NE2       10.2970   42.0920   62.9760 N.ar  323  HIS323     -0.2212
    130  N         15.0800   43.1730   56.6700 N.3   325  LYS325     -0.1245
    131  CA        15.4370   42.0380   55.8270 C.3   325  LYS325      0.1561
    132  C         15.8840   42.5710   54.4820 C.2   325  LYS325      0.2260
    133  O         15.1990   43.4060   53.9000 O.2   325  LYS325     -0.2867
    134  CB        14.2310   41.1000   55.6170 C.3   325  LYS325      0.0271
    135  CG        13.5260   40.6750   56.9140 C.3   325  LYS325      0.0035
    136  CD        12.3820   41.6310   57.2570 C.3   325  LYS325      0.0206
    137  CE        11.3890   41.0250   58.2500 C.3   325  LYS325      0.1093
    138  NZ        11.9580   40.8380   59.6040 N.3   325  LYS325     -0.1314
    139  N         11.1970   37.2270   55.3180 N.3   346  ASN346     -0.1240
    140  CA        12.2820   36.4980   55.9590 C.3   346  ASN346      0.1653
    141  C         12.6980   35.2660   55.1510 C.2   346  ASN346      0.2266
    142  O         12.1960   35.0260   54.0550 O.2   346  ASN346     -0.2867
    143  CB        11.8960   36.0940   57.3790 C.3   346  ASN346      0.1155
    144  CG        11.6780   37.2750   58.2670 C.2   346  ASN346      0.2627
    145  OD1       12.6330   37.9350   58.6800 O.2   346  ASN346     -0.2716
    146  ND2       10.4130   37.5810   58.5570 N.am  346  ASN346     -0.0877
    147  N         15.1520   30.9740   69.8080 N.3   412  TRP412     -0.1241
    148  CA        14.4570   31.7280   70.8610 C.3   412  TRP412      0.1605
    149  C         13.8330   30.9390   72.0160 C.2   412  TRP412      0.2264
    150  O         13.6120   31.4990   73.0900 O.2   412  TRP412     -0.2867
    151  CB        13.4250   32.7000   70.2680 C.3   412  TRP412      0.0550
    152  CG        12.1110   32.0780   69.8210 C.ar  412  TRP412      0.0003
    153  CD1       11.8920   30.7850   69.4240 C.ar  412  TRP412      0.0946
    154  CD2       10.8430   32.7510   69.7010 C.ar  412  TRP412      0.0152
    155  NE1       10.5710   30.6160   69.0740 N.ar  412  TRP412     -0.2442
    156  CE2        9.9050   31.8040   69.2400 C.ar  412  TRP412      0.0810
    157  CE3       10.4050   34.0640   69.9460 C.ar  412  TRP412      0.0012
    158  CZ2        8.5600   32.1260   69.0200 C.ar  412  TRP412      0.0191
    159  CZ3        9.0740   34.3790   69.7300 C.ar  412  TRP412      0.0001
    160  CH2        8.1670   33.4140   69.2730 C.ar  412  TRP412      0.0015
@<TRIPOS>BOND
     1   133   132    2
     2   142   141    2
     3   132   131    1
     4   141   140    1
     5   139   140    1
     6   134   131    1
     7   134   135    1
     8   131   130    1
     9   140   143    1
    10    65    66    1
    11    67    66    1
    12    67    68    2
    13   135   136    1
    14    69    66    1
    15    69    70    1
    16   136   137    1
    17    71    70   ar
    18    71    73   ar
    19   143   144    1
    20    70    72   ar
    21   137   138    1
    22   144   146   am
    23   144   145    2
    24    73    74   ar
    25   100    99    2
    26    72    74   ar
    27    91    92    1
    28    99    98    1
    29   123   122    2
    30     1     2    1
    31   122   121    1
    32    97    98    1
    33    97    93   am
    34    98   101    1
    35   101   102    1
    36     5     2    1
    37     5     6    1
    38     2     3    1
    39    92    93    1
    40    92    95    1
    41    29    28   ar
    42    29    27   ar
    43    96    95    1
    44    38    39    1
    45    93    94    2
    46     7     6   ar
    47     7     9   ar
    48     6     8   ar
    49    28    26   ar
    50   126   128   ar
    51   126   125   ar
    52   128   129   ar
    53    41    40    2
    54    27    25   ar
    55   121   120    1
    56   121   124    1
    57     9    11   ar
    58     8    10   ar
    59     3     4    2
    60     3    13   am
    61    40    39    1
    62    75    76    1
    63    39    42    1
    64   125   124    1
    65   125   127   ar
    66   129   127   ar
    67    11    10   ar
    68    11    12    1
    69    81    80    2
    70    26    24   ar
    71    76    77    1
    72    76    79    1
    73    25    24   ar
    74    13    14    1
    75    80    82   am
    76    80    79    1
    77    77    78    2
    78    44    43   ar
    79    42    43    1
    80    24    23    1
    81    16    15    2
    82    43    45   ar
    83   118   119    1
    84   118   117    1
    85    14    15    1
    86    14    17    1
    87   119   113    1
    88    15    19   am
    89   116   115    2
    90   110   109    2
    91    23    20    1
    92   115   114    1
    93    17    18    1
    94    19    20    1
    95   113   114    1
    96   117   114    1
    97    20    21    1
    98   109   108    1
    99    83    84    1
   100   111   108    1
   101   111   112    1
   102   108   107    1
   103    21    30   am
   104    21    22    2
   105    86    85    2
   106    30    31    1
   107    88    90    1
   108    88    87    1
   109    84    85    1
   110    84    87    1
   111    89    87    1
   112    33    32    2
   113   158   156   ar
   114   158   160   ar
   115   107   105   am
   116   155   156   ar
   117   155   153   ar
   118    32    31    1
   119   156   154   ar
   120   160   159   ar
   121   106   105    2
   122   153   152   ar
   123    31    34    1
   124   154   152   ar
   125   154   157   ar
   126   159   157   ar
   127   105   104    1
   128   147   148    1
   129   152   151    1
   130    64    62   am
   131    46    47    1
   132    48    49    2
   133    48    47    1
   134   151   148    1
   135    34    35    1
   136    58    59    2
   137    58    57    1
   138    60    57    1
   139    60    61    1
   140    62    63    2
   141    62    61    1
   142   148   149    1
   143    47    50    1
   144    56    57    1
   145   104   103    1
   146    50    51    1
   147    53    51   ar
   148    53    55   ar
   149    35    36   ar
   150    35    37   ar
   151   149   150    2
   152    51    52   ar
   153    55    54   ar
   154    52    54   ar
