@<TRIPOS>MOLECULE
tmp/1rfnA00.pdb
 129 129 0 0 0
SMALL
GASTEIGER

@<TRIPOS>ATOM
      1  N         11.2310   14.5510   44.7930 N.3    41  HIS41      -0.1241
      2  CA        10.3500   13.9910   45.8240 C.3    41  HIS41       0.1621
      3  C          9.5980   15.0450   46.6440 C.2    41  HIS41       0.2264
      4  O          8.7720   14.7030   47.4930 O.2    41  HIS41      -0.2867
      5  CB        11.1040   13.0540   46.7860 C.3    41  HIS41       0.0745
      6  CG        11.7940   13.7580   47.9140 C.ar   41  HIS41       0.0817
      7  ND1       13.0390   14.3300   47.7920 N.ar   41  HIS41      -0.2268
      8  CD2       11.3870   14.0170   49.1790 C.ar   41  HIS41       0.1154
      9  CE1       13.3720   14.9100   48.9320 C.ar   41  HIS41       0.1986
     10  NE2       12.3850   14.7360   49.7890 N.ar   41  HIS41      -0.2212
     11  N         14.4880    8.6400   45.2940 N.3    86  TYR86      -0.1241
     12  CA        15.6080    9.5420   45.5290 C.3    86  TYR86       0.1605
     13  C         16.6350    9.5230   44.4050 C.2    86  TYR86       0.2264
     14  O         17.6290   10.2600   44.4300 O.2    86  TYR86      -0.2867
     15  CB        16.2710    9.2070   46.8650 C.3    86  TYR86       0.0534
     16  CG        15.3730    9.5220   48.0340 C.ar   86  TYR86      -0.0201
     17  CD1       14.8780   10.8140   48.2160 C.ar   86  TYR86      -0.0009
     18  CD2       14.9610    8.5240   48.9200 C.ar   86  TYR86      -0.0009
     19  CE1       13.9950   11.1020   49.2370 C.ar   86  TYR86       0.0417
     20  CE2       14.0760    8.8040   49.9470 C.ar   86  TYR86       0.0417
     21  CZ        13.5940   10.0950   50.0970 C.ar   86  TYR86       0.1957
     22  OH        12.6860   10.3820   51.0890 O.3    86  TYR86      -0.2866
     23  N         24.3120   18.3680   60.2110 N.3   179  ASP179     -0.1225
     24  CA        23.8080   17.7670   58.9780 C.3   179  ASP179      0.1805
     25  C         22.5890   18.5660   58.4860 C.2   179  ASP179      0.2598
     26  O         22.1480   19.5180   59.1310 O.2   179  ASP179     -0.2718
     27  CB        23.3930   16.3210   59.3020 C.3   179  ASP179      0.1424
     28  CG        23.1140   15.4700   58.0720 C.2   179  ASP179      0.3668
     29  OD1       23.4450   15.8580   56.9310 O.co2 179  ASP179     -0.2456
     30  OD2       22.5700   14.3720   58.2660 O.co2 179  ASP179     -0.2456
     31  N         22.0660   18.1910   57.3260 N.am  180  SER180     -0.1938
     32  CA        20.8640   18.8120   56.7990 C.3   180  SER180      0.2055
     33  C         19.7690   17.8740   57.3220 C.2   180  SER180      0.2643
     34  O         20.0570   16.7530   57.7370 O.2   180  SER180     -0.2714
     35  CB        20.8910   18.8290   55.2700 C.3   180  SER180      0.2130
     36  OG        20.9700   17.5210   54.7410 O.3   180  SER180     -0.2179
     37  N         18.5190   18.3070   57.3180 N.am  181  CYS181     -0.1953
     38  CA        17.4800   17.4440   57.8540 C.3   181  CYS181      0.1843
     39  C         16.1980   17.6370   57.0560 C.2   181  CYS181      0.2625
     40  O         16.2060   18.3410   56.0480 O.2   181  CYS181     -0.2714
     41  CB        17.2900   17.7920   59.3370 C.3   181  CYS181      0.0997
     42  SG        16.4890   16.5330   60.3680 S.3   181  CYS181     -0.0797
     43  N         15.1020   17.0170   57.4900 N.am  182  GLN182     -0.1977
     44  CA        13.8470   17.1620   56.7590 C.3   182  GLN182      0.1601
     45  C         13.3170   18.5960   56.7610 C.2   182  GLN182      0.2287
     46  O         13.3390   19.2910   57.7800 O.2   182  GLN182     -0.2864
     47  CB        12.7790   16.1840   57.2740 C.3   182  GLN182      0.0394
     48  CG        12.7640   15.9690   58.7610 C.3   182  GLN182      0.0908
     49  CD        13.3850   14.6400   59.1800 C.2   182  GLN182      0.2608
     50  OE1       13.5110   14.3510   60.3730 O.2   182  GLN182     -0.2717
     51  NE2       13.7620   13.8210   58.2040 N.am  182  GLN182     -0.0878
     52  N         15.4860   19.5100   52.0810 N.3   185  SER185     -0.1217
     53  CA        15.6100   18.9470   50.7430 C.3   185  SER185      0.1889
     54  C         14.9390   19.8040   49.6770 C.2   185  SER185      0.2288
     55  O         13.8850   20.3890   49.9020 O.2   185  SER185     -0.2866
     56  CB        15.0880   17.5040   50.7270 C.3   185  SER185      0.2089
     57  OG        13.9620   17.3530   51.5710 O.3   185  SER185     -0.2183
     58  N         19.9750   19.1580   48.0850 N.3   203  ILE203     -0.1231
     59  CA        19.7000   18.4280   49.3190 C.3   203  ILE203      0.1692
     60  C         18.5920   17.4320   49.0060 C.2   203  ILE203      0.2593
     61  O         17.4740   17.8180   48.6720 O.2   203  ILE203     -0.2718
     62  CB        19.2230   19.3810   50.4290 C.3   203  ILE203      0.0266
     63  CG1       20.2220   20.5200   50.5980 C.3   203  ILE203      0.0019
     64  CG2       19.0810   18.6280   51.7350 C.3   203  ILE203      0.0020
     65  CD1       19.8010   21.5520   51.6020 C.3   203  ILE203      0.0001
     66  N         18.9020   16.1480   49.1170 N.am  204  SER204     -0.1938
     67  CA        17.9240   15.1180   48.8020 C.3   204  SER204      0.2055
     68  C         17.3550   14.3860   50.0190 C.2   204  SER204      0.2643
     69  O         16.2860   14.7450   50.5230 O.2   204  SER204     -0.2714
     70  CB        18.5450   14.1150   47.8220 C.3   204  SER204      0.2130
     71  OG        17.5750   13.2180   47.3200 O.3   204  SER204     -0.2179
     72  N         18.0680   13.3670   50.4890 N.am  205  TRP205     -0.1959
     73  CA        17.6050   12.5780   51.6200 C.3   205  TRP205      0.1771
     74  C         18.6880   12.2190   52.6270 C.2   205  TRP205      0.2620
     75  O         19.7780   12.7770   52.6220 O.2   205  TRP205     -0.2715
     76  CB        16.9650   11.2820   51.1150 C.3   205  TRP205      0.0590
     77  CG        17.9080   10.4100   50.3130 C.ar  205  TRP205      0.0006
     78  CD1       18.4130   10.6750   49.0710 C.ar  205  TRP205      0.0946
     79  CD2       18.4800    9.1520   50.7160 C.ar  205  TRP205      0.0152
     80  NE1       19.2580    9.6670   48.6790 N.ar  205  TRP205     -0.2442
     81  CE2       19.3190    8.7190   49.6660 C.ar  205  TRP205      0.0810
     82  CE3       18.3650    8.3510   51.8620 C.ar  205  TRP205      0.0012
     83  CZ2       20.0420    7.5150   49.7260 C.ar  205  TRP205      0.0191
     84  CZ3       19.0870    7.1550   51.9220 C.ar  205  TRP205      0.0001
     85  CH2       19.9120    6.7520   50.8610 C.ar  205  TRP205      0.0015
     86  N         18.3590   11.2630   53.4890 N.am  206  GLY206     -0.1940
     87  CA        19.2860   10.7950   54.4990 C.3   206  GLY206      0.2014
     88  C         18.6080    9.8050   55.4280 C.2   206  GLY206      0.2639
     89  O         17.4740    9.3960   55.1910 O.2   206  GLY206     -0.2714
     90  N         19.3160    9.4060   56.4780 N.am  207  GLU207     -0.1963
     91  CA        18.7890    8.4790   57.4740 C.3   207  GLU207      0.1733
     92  C         18.9610    9.1560   58.8230 C.2   207  GLU207      0.2616
     93  O         20.0590    9.1770   59.3770 O.2   207  GLU207     -0.2715
     94  CB        19.5590    7.1520   57.4480 C.3   207  GLU207      0.0429
     95  CG        19.2230    6.2530   56.2660 C.3   207  GLU207      0.1163
     96  CD        20.0130    4.9530   56.2700 C.2   207  GLU207      0.3649
     97  OE1       21.2350    4.9830   56.0050 O.co2 207  GLU207     -0.2457
     98  OE2       19.4110    3.8980   56.5560 O.co2 207  GLU207     -0.2457
     99  N         17.8760    9.7110   59.3500 N.am  208  GLU208     -0.1963
    100  CA        17.9370   10.4210   60.6200 C.3   208  GLU208      0.1733
    101  C         18.7310   11.6720   60.3000 C.2   208  GLU208      0.2616
    102  O         19.0040   11.9320   59.1320 O.2   208  GLU208     -0.2715
    103  CB        18.6370    9.5770   61.6900 C.3   208  GLU208      0.0429
    104  CG        17.8420    8.3460   62.1010 C.3   208  GLU208      0.1163
    105  CD        18.6390    7.0540   61.9960 C.2   208  GLU208      0.3649
    106  OE1       19.8330    7.1050   61.6160 O.co2 208  GLU208     -0.2457
    107  OE2       18.0660    5.9810   62.2940 O.co2 208  GLU208     -0.2457
    108  N         19.1050   12.4450   61.3140 N.am  209  CYS209     -0.1968
    109  CA        19.8470   13.6710   61.0660 C.3   209  CYS209      0.1712
    110  C         21.0090   13.8820   62.0120 C.2   209  CYS209      0.2296
    111  O         20.8680   13.7520   63.2260 O.2   209  CYS209     -0.2864
    112  CB        18.9150   14.8810   61.1570 C.3   209  CYS209      0.0983
    113  SG        17.5500   14.8560   59.9630 S.3   209  CYS209     -0.0798
    114  N         25.5400    9.9340   56.6420 N.3   215  TYR215     -0.1227
    115  CA        25.6270   11.2400   56.0000 C.3   215  TYR215      0.1736
    116  C         24.3630   11.6540   55.2760 C.2   215  TYR215      0.2596
    117  O         23.3320   10.9880   55.3450 O.2   215  TYR215     -0.2718
    118  CB        26.7740   11.2270   54.9940 C.3   215  TYR215      0.0548
    119  CG        28.0570   10.6620   55.5520 C.ar  215  TYR215     -0.0200
    120  CD1       28.8370   11.3920   56.4500 C.ar  215  TYR215     -0.0009
    121  CD2       28.4560    9.3650   55.2300 C.ar  215  TYR215     -0.0009
    122  CE1       29.9820   10.8380   57.0140 C.ar  215  TYR215      0.0417
    123  CE2       29.5900    8.8090   55.7860 C.ar  215  TYR215      0.0417
    124  CZ        30.3490    9.5470   56.6770 C.ar  215  TYR215      0.1957
    125  OH        31.4660    8.9820   57.2350 O.3   215  TYR215     -0.2866
    126  N         24.4660   12.7800   54.5820 N.am  216  GLY216     -0.1957
    127  CA        23.3530   13.2890   53.8130 C.3   216  GLY216      0.1869
    128  C         23.6220   13.0650   52.3360 C.2   216  GLY216      0.2309
    129  O         24.7030   13.3720   51.8280 O.2   216  GLY216     -0.2863
@<TRIPOS>BOND
     1    13    14    2
     2    13    12    1
     3     1     2    1
     4    11    12    1
     5    12    15    1
     6     2     3    1
     7     2     5    1
     8     3     4    2
     9     5     6    1
    10    15    16    1
    11    71    70    1
    12     7     6   ar
    13     7     9   ar
    14    70    67    1
    15     6     8   ar
    16    16    17   ar
    17    16    18   ar
    18    58    59    1
    19    17    19   ar
    20    61    60    2
    21    80    78   ar
    22    80    81   ar
    23    67    66    1
    24    67    68    1
    25    18    20   ar
    26     9    10   ar
    27    60    66   am
    28    60    59    1
    29    78    77   ar
    30     8    10   ar
    31    19    21   ar
    32    59    62    1
    33    81    83   ar
    34    81    79   ar
    35    54    55    2
    36    54    53    1
    37    83    85   ar
    38    20    21   ar
    39    68    72   am
    40    68    69    2
    41    21    22    1
    42    77    79   ar
    43    77    76    1
    44    62    63    1
    45    62    64    1
    46    72    73    1
    47    63    65    1
    48    79    82   ar
    49    56    53    1
    50    56    57    1
    51    53    52    1
    52    85    84   ar
    53    76    73    1
    54    73    74    1
    55   129   128    2
    56    82    84   ar
    57   128   127    1
    58    75    74    2
    59    74    86   am
    60    86    87    1
    61   127   126    1
    62    87    88    1
    63   126   116   am
    64    36    35    1
    65   118   119    1
    66   118   115    1
    67    89    88    2
    68   121   119   ar
    69   121   123   ar
    70    35    32    1
    71   116   117    2
    72   116   115    1
    73    88    90   am
    74   119   120   ar
    75   123   124   ar
    76   115   114    1
    77    97    96   ar
    78    40    39    2
    79    95    96    1
    80    95    94    1
    81    96    98   ar
    82   120   122   ar
    83    90    91    1
    84   124   122   ar
    85   124   125    1
    86    44    45    1
    87    44    47    1
    88    44    43    1
    89    45    46    2
    90    32    33    1
    91    32    31    1
    92    29    28   ar
    93    39    43   am
    94    39    38    1
    95    47    48    1
    96    37    33   am
    97    37    38    1
    98    33    34    2
    99    31    25   am
   100    94    91    1
   101    91    92    1
   102    38    41    1
   103    28    30   ar
   104    28    27    1
   105    51    49   am
   106    25    24    1
   107    25    26    2
   108    48    49    1
   109    92    99   am
   110    92    93    2
   111    24    27    1
   112    24    23    1
   113   102   101    2
   114    49    50    2
   115    41    42    1
   116    99   100    1
   117   113    42    1
   118   113   112    1
   119   101   100    1
   120   101   108   am
   121   100   103    1
   122   109   112    1
   123   109   108    1
   124   109   110    1
   125   106   105   ar
   126   103   104    1
   127   105   104    1
   128   105   107   ar
   129   110   111    2
