@<TRIPOS>MOLECULE
tmp/1rfqB01.pdb
 158 146 0 0 0
SMALL
GASTEIGER

@<TRIPOS>ATOM
      1  N        -26.9260  139.3590    6.8430 N.3    11  GLY11      -0.1210
      2  CA       -27.0770  140.5660    6.0570 C.3    11  GLY11       0.1956
      3  C        -28.4540  141.1950    6.1970 C.2    11  GLY11       0.2611
      4  O        -28.9080  141.9220    5.3090 O.2    11  GLY11      -0.2717
      5  N        -29.1210  140.9160    7.3140 N.am   12  LEU12      -0.1979
      6  CA       -30.4510  141.4690    7.5800 C.3    12  LEU12       0.1596
      7  C        -30.8080  141.4960    9.0590 C.2    12  LEU12       0.2287
      8  O        -30.1790  140.8260    9.8840 O.2    12  LEU12      -0.2864
      9  CB       -31.5190  140.6830    6.8220 C.3    12  LEU12       0.0297
     10  CG       -31.7970  141.2140    5.4110 C.3    12  LEU12       0.0022
     11  CD1      -32.7020  140.2350    4.6570 C.3    12  LEU12       0.0001
     12  CD2      -32.4380  142.6090    5.5050 C.3    12  LEU12       0.0001
     13  N        -32.2480  146.6350    6.3810 N.3    28  PRO28      -0.2116
     14  CA       -30.8630  146.4920    5.9230 C.3    28  PRO28       0.1372
     15  C        -29.8040  146.7480    6.9990 C.2    28  PRO28       0.2244
     16  O        -29.6130  147.8830    7.4560 O.2    28  PRO28      -0.2868
     17  CB       -30.7730  147.4970    4.7720 C.3    28  PRO28       0.0268
     18  CG       -31.7120  148.5580    5.1880 C.3    28  PRO28       0.0207
     19  CD       -32.8970  147.7560    5.6740 C.3    28  PRO28       0.0892
     20  N        -26.9300  147.5010    7.1830 N.3    30  ILE30      -0.1245
     21  CA       -25.8240  148.1570    6.5040 C.3    30  ILE30       0.1561
     22  C        -25.6300  149.5550    7.0430 C.2    30  ILE30       0.2260
     23  O        -26.5710  150.1740    7.5380 O.2    30  ILE30      -0.2867
     24  CB       -26.0620  148.2710    4.9790 C.3    30  ILE30       0.0252
     25  CG1      -27.5600  148.3800    4.6870 C.3    30  ILE30       0.0019
     26  CG2      -25.4330  147.0940    4.2620 C.3    30  ILE30       0.0019
     27  CD1      -28.2170  149.6020    5.2840 C.3    30  ILE30       0.0001
     28  N        -29.4440  151.8640    7.2380 N.3    41  GLY41      -0.1210
     29  CA       -30.7030  151.3760    6.6990 C.3    41  GLY41       0.1956
     30  C        -30.8200  151.5550    5.1940 C.2    41  GLY41       0.2611
     31  O        -29.8150  151.7170    4.4980 O.2    41  GLY41      -0.2717
     32  N        -32.0520  151.5260    4.6900 N.am   42  ASP42      -0.1973
     33  CA       -32.3080  151.6940    3.2610 C.3    42  ASP42       0.1709
     34  C        -32.1050  153.1500    2.9210 C.2    42  ASP42       0.2293
     35  O        -32.2780  153.5660    1.7740 O.2    42  ASP42      -0.2864
     36  CB       -33.7320  151.2930    2.9190 C.3    42  ASP42       0.1436
     37  CG       -34.3040  150.3450    3.9260 C.2    42  ASP42       0.3671
     38  OD1      -34.4840  150.7710    5.0890 O.co2  42  ASP42      -0.2456
     39  OD2      -34.5540  149.1780    3.5680 O.co2  42  ASP42      -0.2456
     40  N        -29.4470  152.8660    1.2560 N.3    45  GLN45      -0.1245
     41  CA       -29.8020  152.2960   -0.0400 C.3    45  GLN45       0.1566
     42  C        -29.6580  153.3360   -1.1370 C.2    45  GLN45       0.2260
     43  O        -28.8680  153.1710   -2.0660 O.2    45  GLN45      -0.2867
     44  CB       -31.2420  151.7450   -0.0100 C.3    45  GLN45       0.0367
     45  CG       -32.2510  152.3610   -0.9880 C.3    45  GLN45       0.0905
     46  CD       -31.9310  152.0920   -2.4530 C.2    45  GLN45       0.2608
     47  OE1      -32.5980  152.6170   -3.3440 O.2    45  GLN45      -0.2717
     48  NE2      -30.9130  151.2760   -2.7080 N.am   45  GLN45      -0.0878
     49  N        -21.2330  152.6420    1.4150 N.3    53  LEU53      -0.1245
     50  CA       -21.7350  151.8530    2.5320 C.3    53  LEU53       0.1561
     51  C        -21.3230  150.3900    2.5590 C.2    53  LEU53       0.2260
     52  O        -21.5100  149.6590    1.5860 O.2    53  LEU53      -0.2867
     53  CB       -23.2590  151.9420    2.5420 C.3    53  LEU53       0.0270
     54  CG       -23.9470  151.6440    1.2010 C.3    53  LEU53       0.0019
     55  CD1      -25.4500  151.7430    1.3910 C.3    53  LEU53       0.0001
     56  CD2      -23.5050  152.6220    0.1120 C.3    53  LEU53       0.0001
     57  N        -21.4830  146.5840    4.6520 N.3    55  TYR55      -0.1241
     58  CA       -22.3030  145.8310    5.5880 C.3    55  TYR55       0.1605
     59  C        -21.3850  145.3610    6.7090 C.2    55  TYR55       0.2264
     60  O        -20.2600  144.9340    6.4560 O.2    55  TYR55      -0.2867
     61  CB       -22.9370  144.5860    4.9520 C.3    55  TYR55       0.0534
     62  CG       -23.0290  144.5240    3.4360 C.ar   55  TYR55      -0.0201
     63  CD1      -21.8940  144.6780    2.6340 C.ar   55  TYR55      -0.0009
     64  CD2      -24.2370  144.1970    2.8080 C.ar   55  TYR55      -0.0009
     65  CE1      -21.9580  144.4990    1.2510 C.ar   55  TYR55       0.0417
     66  CE2      -24.3110  144.0170    1.4300 C.ar   55  TYR55       0.0417
     67  CZ       -23.1670  144.1660    0.6600 C.ar   55  TYR55       0.1957
     68  OH       -23.2180  143.9650   -0.7000 O.3    55  TYR55      -0.2866
     69  N        -28.8600  134.9020    4.6880 N.3   143  ASP143     -0.1239
     70  CA       -28.2000  135.6570    3.6280 C.3   143  ASP143      0.1674
     71  C        -26.7280  135.3830    3.4700 C.2   143  ASP143      0.2266
     72  O        -26.2990  134.7920    2.4810 O.2   143  ASP143     -0.2867
     73  CB       -28.3690  137.1610    3.8300 C.3   143  ASP143      0.1410
     74  CG       -27.6560  137.9730    2.7480 C.2   143  ASP143      0.3668
     75  OD1      -28.1510  137.9880    1.5990 O.co2 143  ASP143     -0.2456
     76  OD2      -26.5970  138.5810    3.0390 O.co2 143  ASP143     -0.2456
     77  N        -26.9890  136.2870   -0.5300 N.3   169  ARG169     -0.1245
     78  CA       -26.1040  137.2900   -1.1290 C.3   169  ARG169      0.1563
     79  C        -24.8250  136.6800   -1.6810 C.2   169  ARG169      0.2260
     80  O        -23.8620  137.3840   -1.9780 O.2   169  ARG169     -0.2867
     81  CB       -25.7550  138.3630   -0.0930 C.3   169  ARG169      0.0307
     82  CG       -25.2840  139.6580   -0.6970 C.3   169  ARG169      0.0489
     83  CD       -25.1370  140.7410    0.3570 C.3   169  ARG169      0.2205
     84  NE       -23.9130  140.5990    1.1400 N.pl3 169  ARG169     -0.0865
     85  CZ       -22.6770  140.7570    0.6610 C.cat 169  ARG169      0.5346
     86  NH1      -22.4650  141.0650   -0.6110 N.pl3 169  ARG169      0.1354
     87  NH2      -21.6400  140.6170    1.4670 N.pl3 169  ARG169      0.1354
     88  N        -26.0500  135.5660   -5.4550 N.3   172  THR172     -0.1218
     89  CA       -26.3410  136.8230   -6.1410 C.3   172  THR172      0.1862
     90  C        -25.1410  137.3720   -6.9160 C.2   172  THR172      0.2287
     91  O        -25.2030  137.4620   -8.1450 O.2   172  THR172     -0.2866
     92  CB       -26.8540  137.9010   -5.1400 C.3   172  THR172      0.1770
     93  OG1      -28.1040  137.4710   -4.5760 O.3   172  THR172     -0.2211
     94  CG2      -27.0540  139.2480   -5.8470 C.3   172  THR172      0.0375
     95  N        -24.0840  147.8440   -7.4770 N.3   189  THR189     -0.1218
     96  CA       -25.0080  147.4170   -6.4040 C.3   189  THR189      0.1862
     97  C        -26.3890  147.8590   -6.8230 C.2   189  THR189      0.2287
     98  O        -27.3810  147.1500   -6.6360 O.2   189  THR189     -0.2866
     99  CB       -24.6990  148.0940   -5.0590 C.3   189  THR189      0.1770
    100  OG1      -25.1280  149.4590   -5.1040 O.3   189  THR189     -0.2211
    101  CG2      -23.2080  148.0250   -4.7790 C.3   189  THR189      0.0375
    102  N        -27.1840  145.3290   -8.5870 N.3   192  ARG192     -0.1231
    103  CA       -27.0640  144.1280   -7.7690 C.3   192  ARG192      0.1694
    104  C        -28.3190  143.8450   -6.9570 C.2   192  ARG192      0.2591
    105  O        -28.6840  142.6900   -6.7410 O.2   192  ARG192     -0.2718
    106  CB       -25.8580  144.2360   -6.8280 C.3   192  ARG192      0.0321
    107  CG       -25.5570  142.9370   -6.0780 C.3   192  ARG192      0.0489
    108  CD       -24.4080  143.1030   -5.0970 C.3   192  ARG192      0.2205
    109  NE       -24.0840  141.8530   -4.4130 N.pl3 192  ARG192     -0.0865
    110  CZ       -23.1590  141.7420   -3.4640 C.cat 192  ARG192      0.5346
    111  NH1      -22.4640  142.8040   -3.0820 N.pl3 192  ARG192      0.1354
    112  NH2      -22.9240  140.5710   -2.8960 N.pl3 192  ARG192      0.1354
    113  N        -28.9830  144.8960   -6.5050 N.am  193  GLU193     -0.1979
    114  CA       -30.1830  144.6890   -5.7230 C.3   193  GLU193      0.1602
    115  C        -31.2520  144.0100   -6.5630 C.2   193  GLU193      0.2287
    116  O        -31.9070  143.0620   -6.1150 O.2   193  GLU193     -0.2864
    117  CB       -30.7290  146.0140   -5.1910 C.3   193  GLU193      0.0415
    118  CG       -31.8000  145.7860   -4.1460 C.3   193  GLU193      0.1163
    119  CD       -31.3000  144.8550   -3.0690 C.2   193  GLU193      0.3649
    120  OE1      -30.6570  145.3380   -2.1200 O.co2 193  GLU193     -0.2457
    121  OE2      -31.5170  143.6360   -3.1930 O.co2 193  GLU193     -0.2457
    122  N        -31.1880  139.8660   -6.4940 N.3   196  ARG196     -0.1231
    123  CA       -31.8880  139.1800   -5.4100 C.3   196  ARG196      0.1694
    124  C        -33.3970  139.2900   -5.5700 C.2   196  ARG196      0.2592
    125  O        -34.1310  138.3130   -5.3870 O.2   196  ARG196     -0.2718
    126  CB       -31.4780  139.7620   -4.0620 C.3   196  ARG196      0.0321
    127  CG       -32.0620  139.0520   -2.8540 C.3   196  ARG196      0.0489
    128  CD       -31.9780  139.9760   -1.6810 C.3   196  ARG196      0.2205
    129  NE       -32.2640  141.3370   -2.1270 N.pl3 196  ARG196     -0.0865
    130  CZ       -33.4620  141.7590   -2.5330 C.cat 196  ARG196      0.5346
    131  NH1      -34.4940  140.9290   -2.5420 N.pl3 196  ARG196      0.1354
    132  NH2      -33.6370  143.0080   -2.9430 N.pl3 196  ARG196      0.1354
    133  N        -33.8560  140.4860   -5.9120 N.am  197  ASP197     -0.1974
    134  CA       -35.2790  140.7120   -6.1070 C.3   197  ASP197      0.1709
    135  C        -35.7840  139.6470   -7.0700 C.2   197  ASP197      0.2293
    136  O        -36.8140  139.0260   -6.8500 O.2   197  ASP197     -0.2864
    137  CB       -35.5050  142.1010   -6.6970 C.3   197  ASP197      0.1436
    138  CG       -36.9660  142.3980   -6.9460 C.2   197  ASP197      0.3671
    139  OD1      -37.2730  143.4760   -7.5030 O.co2 197  ASP197     -0.2456
    140  OD2      -37.8070  141.5510   -6.5820 O.co2 197  ASP197     -0.2456
    141  N        -33.9800  136.7770   -8.0880 N.3   199  LYS199     -0.1231
    142  CA       -33.6800  135.4990   -7.4800 C.3   199  LYS199      0.1693
    143  C        -34.9360  135.0710   -6.7230 C.2   199  LYS199      0.2591
    144  O        -35.7280  134.2600   -7.2090 O.2   199  LYS199     -0.2718
    145  CB       -32.5110  135.6720   -6.5110 C.3   199  LYS199      0.0285
    146  CG       -32.5090  134.6890   -5.3530 C.3   199  LYS199      0.0035
    147  CD       -31.9280  135.2960   -4.0690 C.3   199  LYS199      0.0206
    148  CE       -30.4400  135.6030   -4.2040 C.3   199  LYS199      0.1093
    149  NZ       -29.9070  136.3120   -3.0080 N.3   199  LYS199     -0.1314
    150  N        -35.1220  135.6640   -5.5470 N.am  200  GLU200     -0.1979
    151  CA       -36.2570  135.3790   -4.6790 C.3   200  GLU200      0.1602
    152  C        -37.5680  135.3280   -5.4480 C.2   200  GLU200      0.2287
    153  O        -38.5270  134.6870   -5.0210 O.2   200  GLU200     -0.2864
    154  CB       -36.3760  136.4550   -3.6090 C.3   200  GLU200      0.0415
    155  CG       -35.0560  136.9560   -3.0880 C.3   200  GLU200      0.1163
    156  CD       -35.2200  138.2210   -2.2670 C.2   200  GLU200      0.3649
    157  OE1      -35.9470  139.1230   -2.7370 O.co2 200  GLU200     -0.2457
    158  OE2      -34.6230  138.3220   -1.1670 O.co2 200  GLU200     -0.2457
@<TRIPOS>BOND
     1   102   103    1
     2    91    90    2
     3   141   142    1
     4   103   104    1
     5   103   106    1
     6   139   138   ar
     7   142   143    1
     8   142   145    1
     9    95    96    1
    10   144   143    2
    11   135   136    2
    12   135   134    1
    13   104   105    2
    14   104   113   am
    15   138   137    1
    16   138   140   ar
    17    90    89    1
    18   106   107    1
    19    97    98    2
    20    97    96    1
    21   143   150   am
    22   137   134    1
    23   115   116    2
    24   115   114    1
    25   145   146    1
    26   113   114    1
    27   122   123    1
    28    96    99    1
    29    89    88    1
    30    89    92    1
    31   134   133    1
    32   107   108    1
    33   133   124   am
    34    94    92    1
    35   114   117    1
    36   124   123    1
    37   124   125    2
    38   150   151    1
    39   152   153    2
    40   152   151    1
    41   123   126    1
    42   146   147    1
    43   117   118    1
    44    92    93    1
    45   100    99    1
    46   108   109    1
    47    99   101    1
    48   151   154    1
    49   109   110    2
    50   148   147    1
    51   148   149    1
    52   118   119    1
    53   126   127    1
    54   154   155    1
    55   110   111    1
    56   110   112    1
    57    47    46    2
    58   121   119   ar
    59   155   156    1
    60   119   120   ar
    61   132   130    1
    62   127   128    1
    63   157   156   ar
    64    48    46   am
    65   131   130    1
    66   130   129    2
    67    46    45    1
    68   156   158   ar
    69   129   128    1
    70    43    42    2
    71    80    79    2
    72    79    78    1
    73    42    41    1
    74    78    77    1
    75    78    81    1
    76    45    44    1
    77    68    67    1
    78    82    81    1
    79    82    83    1
    80    86    85    1
    81    41    44    1
    82    41    40    1
    83    56    54    1
    84    83    84    1
    85    67    65   ar
    86    67    66   ar
    87    85    84    2
    88    85    87    1
    89    54    55    1
    90    54    53    1
    91    65    63   ar
    92    49    50    1
    93    66    64   ar
    94    52    51    2
    95    75    74   ar
    96    35    34    2
    97    72    71    2
    98    50    53    1
    99    50    51    1
   100    63    62   ar
   101    74    76   ar
   102    74    73    1
   103    64    62   ar
   104    36    33    1
   105    36    37    1
   106    34    33    1
   107    33    32    1
   108    62    61    1
   109    71    70    1
   110    39    37   ar
   111    70    73    1
   112    70    69    1
   113    37    38   ar
   114    26    24    1
   115    31    30    2
   116    57    58    1
   117    11    10    1
   118    25    24    1
   119    25    27    1
   120    32    30   am
   121    17    18    1
   122    17    14    1
   123    61    58    1
   124    24    21    1
   125    18    19    1
   126    30    29    1
   127     4     3    2
   128    10    12    1
   129    10     9    1
   130    58    59    1
   131    19    13    1
   132    14    13    1
   133    14    15    1
   134     2     3    1
   135     2     1    1
   136     3     5   am
   137    60    59    2
   138    21    22    1
   139    21    20    1
   140    29    28    1
   141     9     6    1
   142    15    16    2
   143    22    23    2
   144     5     6    1
   145     6     7    1
   146     7     8    2
