@<TRIPOS>MOLECULE
tmp/1rftA00.pdb
 194 182 0 0 0
SMALL
GASTEIGER

@<TRIPOS>ATOM
      1  N         43.0780   49.3570  -14.4110 N.3   110  ASP110     -0.1239
      2  CA        44.2700   48.8310  -13.7520 C.3   110  ASP110      0.1674
      3  C         44.0460   47.3410  -13.7210 C.2   110  ASP110      0.2266
      4  O         43.3460   46.8270  -12.8580 O.2   110  ASP110     -0.2867
      5  CB        44.3630   49.3460  -12.3340 C.3   110  ASP110      0.1410
      6  CG        45.5610   48.8120  -11.6280 C.2   110  ASP110      0.3668
      7  OD1       45.7300   49.1090  -10.4270 O.co2 110  ASP110     -0.2456
      8  OD2       46.3360   48.0880  -12.2880 O.co2 110  ASP110     -0.2456
      9  N         44.5740   44.5230  -12.5120 N.3   112  VAL112     -0.1245
     10  CA        45.0960   43.8590  -11.3320 C.3   112  VAL112      0.1561
     11  C         45.0510   42.3380  -11.3910 C.2   112  VAL112      0.2260
     12  O         43.9700   41.7590  -11.3780 O.2   112  VAL112     -0.2867
     13  CB        44.3350   44.3010  -10.0890 C.3   112  VAL112      0.0252
     14  CG1       45.0590   43.7940   -8.8300 C.3   112  VAL112      0.0019
     15  CG2       44.2210   45.7980  -10.0860 C.3   112  VAL112      0.0019
     16  N         51.5420   40.1230   -8.3290 N.3   115  ASP115     -0.1239
     17  CA        52.8420   40.7670   -8.1750 C.3   115  ASP115      0.1674
     18  C         53.9880   39.8330   -8.5550 C.2   115  ASP115      0.2266
     19  O         53.8290   38.6110   -8.5890 O.2   115  ASP115     -0.2867
     20  CB        53.0260   41.2450   -6.7390 C.3   115  ASP115      0.1410
     21  CG        53.8990   42.4730   -6.6530 C.2   115  ASP115      0.3668
     22  OD1       54.1100   42.9930   -5.5350 O.co2 115  ASP115     -0.2456
     23  OD2       54.3740   42.9260   -7.7130 O.co2 115  ASP115     -0.2456
     24  N         47.2610   36.6240   -7.7640 N.3   124  TYR124     -0.1241
     25  CA        46.5870   36.5310   -6.4830 C.3   124  TYR124      0.1605
     26  C         45.0970   36.6550   -6.7160 C.2   124  TYR124      0.2264
     27  O         44.3390   37.0060   -5.8210 O.2   124  TYR124     -0.2867
     28  CB        47.0840   37.5770   -5.4700 C.3   124  TYR124      0.0534
     29  CG        47.3700   38.9840   -5.9680 C.ar  124  TYR124     -0.0201
     30  CD1       46.4490   39.6890   -6.7280 C.ar  124  TYR124     -0.0009
     31  CD2       48.5290   39.6530   -5.5650 C.ar  124  TYR124     -0.0009
     32  CE1       46.6730   41.0320   -7.0660 C.ar  124  TYR124      0.0417
     33  CE2       48.7580   40.9950   -5.8970 C.ar  124  TYR124      0.0417
     34  CZ        47.8280   41.6780   -6.6440 C.ar  124  TYR124      0.1957
     35  OH        48.0570   43.0060   -6.9630 O.3   124  TYR124     -0.2866
     36  N         47.4180   50.6050  -16.4730 N.3   145  THR145     -0.1218
     37  CA        48.5920   50.7800  -15.6230 C.3   145  THR145      0.1862
     38  C         48.9550   49.4410  -14.9850 C.2   145  THR145      0.2287
     39  O         48.6630   49.2020  -13.8200 O.2   145  THR145     -0.2866
     40  CB        48.3170   51.7980  -14.4910 C.3   145  THR145      0.1770
     41  OG1       47.2640   51.3150  -13.6490 O.3   145  THR145     -0.2211
     42  CG2       47.8980   53.1220  -15.0650 C.3   145  THR145      0.0375
     43  N         51.5160   46.0770  -13.8320 N.3   147  ASN147     -0.1240
     44  CA        52.7860   45.7370  -13.1720 C.3   147  ASN147      0.1653
     45  C         53.7430   45.2970  -14.2550 C.2   147  ASN147      0.2266
     46  O         53.3860   45.2520  -15.4380 O.2   147  ASN147     -0.2867
     47  CB        52.5970   44.5280  -12.2440 C.3   147  ASN147      0.1155
     48  CG        52.2390   44.8960  -10.8110 C.2   147  ASN147      0.2627
     49  OD1       52.0390   44.0070   -9.9850 O.2   147  ASN147     -0.2716
     50  ND2       52.1420   46.1620  -10.4640 N.am  147  ASN147     -0.0877
     51  N         52.1930   41.9130  -14.5080 N.3   150  GLU150     -0.1245
     52  CA        50.9040   42.0260  -15.1850 C.3   150  GLU150      0.1567
     53  C         51.0880   42.3060  -16.6740 C.2   150  GLU150      0.2260
     54  O         50.3950   41.7200  -17.5010 O.2   150  GLU150     -0.2867
     55  CB        50.0660   43.1160  -14.5270 C.3   150  GLU150      0.0388
     56  CG        49.1790   42.5540  -13.4150 C.3   150  GLU150      0.1160
     57  CD        48.8760   43.5610  -12.3090 C.2   150  GLU150      0.3649
     58  OE1       48.7900   44.8140  -12.5910 O.co2 150  GLU150     -0.2457
     59  OE2       48.6960   43.1540  -11.1000 O.co2 150  GLU150     -0.2457
     60  N         53.7200   50.9980  -13.9270 N.3   183  THR183     -0.1203
     61  CA        53.9540   51.6820  -12.6780 C.3   183  THR183      0.1994
     62  C         55.2310   51.3520  -11.9220 C.2   183  THR183      0.2618
     63  O         55.6330   52.1430  -11.0680 O.2   183  THR183     -0.2717
     64  CB        52.7770   51.4650  -11.7560 C.3   183  THR183      0.1784
     65  OG1       52.7890   50.1190  -11.2940 O.3   183  THR183     -0.2211
     66  CG2       51.5070   51.6390  -12.5100 C.3   183  THR183      0.0376
     67  N         55.8630   50.2060  -12.1990 N.am  184  SER184     -0.1951
     68  CA        57.1170   49.8460  -11.5140 C.3   184  SER184      0.1924
     69  C         57.7590   48.5810  -12.0790 C.2   184  SER184      0.2314
     70  O         57.0610   47.6270  -12.4250 O.2   184  SER184     -0.2863
     71  CB        56.8940   49.6750  -10.0070 C.3   184  SER184      0.2116
     72  OG        56.2430   48.4600   -9.7190 O.3   184  SER184     -0.2180
     73  N         63.1770   53.1210   -7.8500 N.3   196  LEU196     -0.1245
     74  CA        62.2070   52.2790   -8.5370 C.3   196  LEU196      0.1561
     75  C         61.9620   52.8930   -9.9150 C.2   196  LEU196      0.2260
     76  O         61.6790   54.0820  -10.0370 O.2   196  LEU196     -0.2867
     77  CB        60.8880   52.2270   -7.7720 C.3   196  LEU196      0.0270
     78  CG        60.5990   50.9540   -6.9830 C.3   196  LEU196      0.0019
     79  CD1       59.1100   50.9300   -6.6570 C.3   196  LEU196      0.0001
     80  CD2       60.9810   49.7120   -7.7990 C.3   196  LEU196      0.0001
     81  N         61.5770   56.7090   -9.1510 N.3   220  MET220     -0.1230
     82  CA        61.0690   57.2100   -7.8770 C.3   220  MET220      0.1702
     83  C         61.8840   56.6360   -6.7410 C.2   220  MET220      0.2592
     84  O         62.3820   55.5210   -6.8170 O.2   220  MET220     -0.2718
     85  CB        59.6030   56.8170   -7.7320 C.3   220  MET220      0.0401
     86  CG        58.8580   56.8370   -9.0690 C.3   220  MET220      0.0596
     87  SD        57.5750   55.6120   -9.1620 S.3   220  MET220     -0.1393
     88  CE        58.3010   53.9940   -9.2970 C.3   220  MET220      0.0692
     89  N         62.0290   57.3920   -5.6780 N.am  221  HIS221     -0.1962
     90  CA        62.8200   56.8970   -4.5820 C.3   221  HIS221      0.1787
     91  C         62.0070   55.8380   -3.8600 C.2   221  HIS221      0.2620
     92  O         60.8970   56.1120   -3.4400 O.2   221  HIS221     -0.2715
     93  CB        63.1570   58.0620   -3.6590 C.3   221  HIS221      0.0785
     94  CG        64.1020   57.7110   -2.5580 C.ar  221  HIS221      0.0821
     95  ND1       63.7680   56.8410   -1.5400 N.ar  221  HIS221     -0.2267
     96  CD2       65.3740   58.1080   -2.3160 C.ar  221  HIS221      0.1154
     97  CE1       64.7980   56.7180   -0.7200 C.ar  221  HIS221      0.1986
     98  NE2       65.7830   57.4760   -1.1700 N.ar  221  HIS221     -0.2212
     99  N         62.5430   54.6320   -3.7230 N.am  222  LYS222     -0.1963
    100  CA        61.8210   53.5630   -3.0340 C.3   222  LYS222      0.1728
    101  C         61.6470   53.8310   -1.5350 C.2   222  LYS222      0.2616
    102  O         62.3730   54.6320   -0.9530 O.2   222  LYS222     -0.2715
    103  CB        62.5440   52.2300   -3.2240 C.3   222  LYS222      0.0311
    104  CG        62.8460   51.8820   -4.6710 C.3   222  LYS222      0.0038
    105  CD        63.0620   50.3770   -4.8650 C.3   222  LYS222      0.0206
    106  CE        64.1270   49.8050   -3.9450 C.3   222  LYS222      0.1093
    107  NZ        64.2840   48.3390   -4.1850 N.3   222  LYS222     -0.1314
    108  N         60.6780   53.1500   -0.9270 N.am  223  VAL223     -0.1977
    109  CA        60.3860   53.2810    0.4970 C.3   223  VAL223      0.1596
    110  C         60.3050   51.8570    1.0290 C.2   223  VAL223      0.2287
    111  O         59.5270   51.0460    0.5280 O.2   223  VAL223     -0.2864
    112  CB        59.0430   54.0090    0.7320 C.3   223  VAL223      0.0276
    113  CG1       58.7680   54.1200    2.2090 C.3   223  VAL223      0.0022
    114  CG2       59.0820   55.3980    0.1020 C.3   223  VAL223      0.0022
    115  N         58.8820   49.4330    2.7300 N.3   225  ALA225     -0.1245
    116  CA        57.6920   48.9060    3.3910 C.3   225  ALA225      0.1562
    117  C         56.6940   48.3080    2.4000 C.2   225  ALA225      0.2260
    118  O         56.7490   48.5900    1.1910 O.2   225  ALA225     -0.2867
    119  CB        57.0300   49.9940    4.1930 C.3   225  ALA225      0.0290
    120  N         53.1310   48.3230    1.1820 N.3   227  PHE227     -0.1227
    121  CA        51.9660   49.1840    1.1460 C.3   227  PHE227      0.1736
    122  C         50.8160   48.6430    0.3160 C.2   227  PHE227      0.2595
    123  O         50.9810   48.3170   -0.8680 O.2   227  PHE227     -0.2718
    124  CB        52.3590   50.5510    0.5820 C.3   227  PHE227      0.0547
    125  CG        53.2270   51.3730    1.4960 C.ar  227  PHE227     -0.0202
    126  CD1       54.1880   52.2280    0.9700 C.ar  227  PHE227     -0.0042
    127  CD2       53.0620   51.3270    2.8670 C.ar  227  PHE227     -0.0042
    128  CE1       54.9590   53.0150    1.7880 C.ar  227  PHE227     -0.0003
    129  CE2       53.8340   52.1170    3.6880 C.ar  227  PHE227     -0.0003
    130  CZ        54.7840   52.9620    3.1450 C.ar  227  PHE227     -0.0000
    131  N         49.6430   48.5820    0.9370 N.am  228  VAL228     -0.1966
    132  CA        48.4360   48.1230    0.2640 C.3   228  VAL228      0.1727
    133  C         47.6290   49.3610   -0.1430 C.2   228  VAL228      0.2617
    134  O         47.4020   50.2420    0.6910 O.2   228  VAL228     -0.2715
    135  CB        47.5770   47.3060    1.2080 C.3   228  VAL228      0.0290
    136  CG1       46.3710   46.7750    0.4660 C.3   228  VAL228      0.0023
    137  CG2       48.3890   46.1930    1.8160 C.3   228  VAL228      0.0023
    138  N         47.2080   49.4290   -1.4090 N.am  229  GLY229     -0.1940
    139  CA        46.4330   50.5690   -1.8850 C.3   229  GLY229      0.2014
    140  C         47.0690   51.4890   -2.9230 C.2   229  GLY229      0.2640
    141  O         46.3810   52.1280   -3.7290 O.2   229  GLY229     -0.2714
    142  N         48.3920   51.5590   -2.9100 N.am  230  THR230     -0.1936
    143  CA        49.1200   52.4160   -3.8260 C.3   230  THR230      0.2028
    144  C         48.7320   52.1650   -5.2610 C.2   230  THR230      0.2643
    145  O         48.8210   53.0580   -6.0890 O.2   230  THR230     -0.2714
    146  CB        50.6270   52.1990   -3.6910 C.3   230  THR230      0.1808
    147  OG1       50.9510   50.8750   -4.1320 O.3   230  THR230     -0.2208
    148  CG2       51.0460   52.3320   -2.2330 C.3   230  THR230      0.0379
    149  N         48.2970   50.9540   -5.5690 N.am  231  GLY231     -0.1939
    150  CA        47.9480   50.6730   -6.9500 C.3   231  GLY231      0.2014
    151  C         46.7490   51.4910   -7.3410 C.2   231  GLY231      0.2638
    152  O         46.7180   52.0540   -8.4250 O.2   231  GLY231     -0.2714
    153  N         45.7770   51.5470   -6.4320 N.am  232  ASP232     -0.1971
    154  CA        44.5380   52.2910   -6.6050 C.3   232  ASP232      0.1709
    155  C         44.7440   53.8170   -6.5870 C.2   232  ASP232      0.2293
    156  O         44.2220   54.5330   -7.4430 O.2   232  ASP232     -0.2864
    157  CB        43.5680   51.9060   -5.4890 C.3   232  ASP232      0.1436
    158  CG        43.4260   50.4020   -5.3310 C.2   232  ASP232      0.3671
    159  OD1       43.2900   49.7270   -6.3710 O.co2 232  ASP232     -0.2456
    160  OD2       43.4420   49.8970   -4.1810 O.co2 232  ASP232     -0.2456
    161  N         47.2880   55.4500   -7.3020 N.3   234  PHE234     -0.1241
    162  CA        48.0100   55.8380   -8.5000 C.3   234  PHE234      0.1605
    163  C         47.0750   56.0230   -9.6920 C.2   234  PHE234      0.2264
    164  O         47.0660   57.0700  -10.3410 O.2   234  PHE234     -0.2867
    165  CB        49.0370   54.7680   -8.8570 C.3   234  PHE234      0.0534
    166  CG        49.8690   55.1230  -10.0550 C.ar  234  PHE234     -0.0203
    167  CD1       51.1360   55.6740   -9.8950 C.ar  234  PHE234     -0.0042
    168  CD2       49.3610   54.9730  -11.3410 C.ar  234  PHE234     -0.0042
    169  CE1       51.8850   56.0750  -10.9840 C.ar  234  PHE234     -0.0003
    170  CE2       50.1120   55.3770  -12.4470 C.ar  234  PHE234     -0.0003
    171  CZ        51.3790   55.9310  -12.2590 C.ar  234  PHE234     -0.0000
    172  N         53.2620   60.7390   -9.6750 N.3   257  VAL257     -0.1245
    173  CA        54.3060   60.1050   -8.8730 C.3   257  VAL257      0.1561
    174  C         54.7150   60.9450   -7.6630 C.2   257  VAL257      0.2260
    175  O         54.8340   60.4430   -6.5390 O.2   257  VAL257     -0.2867
    176  CB        55.5680   59.8710   -9.7030 C.3   257  VAL257      0.0252
    177  CG1       56.6010   59.1900   -8.8340 C.3   257  VAL257      0.0019
    178  CG2       55.2500   59.0400  -10.9500 C.3   257  VAL257      0.0019
    179  N         52.3640   60.5900   -4.9640 N.3   260  MET260     -0.1245
    180  CA        52.4720   59.2300   -4.4630 C.3   260  MET260      0.1570
    181  C         53.5970   59.2040   -3.4400 C.2   260  MET260      0.2261
    182  O         53.5170   58.5180   -2.4140 O.2   260  MET260     -0.2867
    183  CB        52.7610   58.2600   -5.6030 C.3   260  MET260      0.0387
    184  CG        51.5270   57.9660   -6.4600 C.3   260  MET260      0.0595
    185  SD        50.3160   56.9550   -5.6310 S.3   260  MET260     -0.1393
    186  CE        51.0090   56.2650   -4.1450 C.3   260  MET260      0.0692
    187  N         53.1990   58.4730    0.5890 N.3   264  LEU264     -0.1245
    188  CA        53.9530   57.3620    1.1390 C.3   264  LEU264      0.1561
    189  C         54.9460   57.7580    2.2240 C.2   264  LEU264      0.2260
    190  O         55.0800   57.0730    3.2550 O.2   264  LEU264     -0.2867
    191  CB        54.6600   56.6410    0.0010 C.3   264  LEU264      0.0270
    192  CG        53.6780   56.0320   -1.0040 C.3   264  LEU264      0.0019
    193  CD1       54.4350   55.3030   -2.1010 C.3   264  LEU264      0.0001
    194  CD2       52.7620   55.0660   -0.2720 C.3   264  LEU264      0.0001
@<TRIPOS>BOND
     1    54    53    2
     2    53    52    1
     3    36    37    1
     4    37    38    1
     5    37    40    1
     6    46    45    2
     7    52    55    1
     8    52    51    1
     9    42    40    1
    10    38    39    2
    11    55    56    1
    12    40    41    1
    13     1     2    1
    14    45    44    1
    15    60    61    1
    16    43    44    1
    17     2     3    1
    18     2     5    1
    19     3     4    2
    20    56    57    1
    21    44    47    1
    22    61    62    1
    23    61    64    1
    24    58    57   ar
    25     9    10    1
    26    66    64    1
    27   170   171   ar
    28   170   168   ar
    29    70    69    2
    30     5     6    1
    31    57    59   ar
    32     8     6   ar
    33   171   169   ar
    34    47    48    1
    35    67    62   am
    36    67    68    1
    37    69    68    1
    38    62    63    2
    39    64    65    1
    40     6     7   ar
    41    68    71    1
    42    11    12    2
    43    11    10    1
    44   168   166   ar
    45    10    13    1
    46   169   167   ar
    47   178   176    1
    48    48    50   am
    49    48    49    2
    50   164   163    2
    51    13    15    1
    52    13    14    1
    53   166   167   ar
    54   166   165    1
    55    76    75    2
    56    71    72    1
    57    75    74    1
    58   176   173    1
    59   176   177    1
    60   163   162    1
    61   172   173    1
    62    88    87    1
    63    87    86    1
    64    81    82    1
    65    86    85    1
    66   173   174    1
    67   165   162    1
    68    19    18    2
    69    18    17    1
    70    74    73    1
    71    74    77    1
    72   162   161    1
    73   152   151    2
    74    16    17    1
    75    17    20    1
    76    82    85    1
    77    82    83    1
    78    80    78    1
    79    77    78    1
    80    24    25    1
    81    23    21   ar
    82   174   175    2
    83   156   155    2
    84   151   150    1
    85   151   153   am
    86    32    30   ar
    87    32    34   ar
    88    78    79    1
    89    35    34    1
    90   150   149    1
    91    84    83    2
    92    83    89   am
    93    20    21    1
    94    30    29   ar
    95    26    25    1
    96    26    27    2
    97    21    22   ar
    98    34    33   ar
    99   154   155    1
   100   154   153    1
   101   154   157    1
   102    25    28    1
   103   184   185    1
   104   184   183    1
   105   159   158   ar
   106   145   144    2
   107    29    31   ar
   108    29    28    1
   109    33    31   ar
   110    89    90    1
   111   185   186    1
   112   183   180    1
   113   149   144   am
   114   157   158    1
   115   158   160   ar
   116   144   143    1
   117   179   180    1
   118   105   104    1
   119   105   106    1
   120   104   103    1
   121    90    91    1
   122    90    93    1
   123   180   181    1
   124   107   106    1
   125   147   146    1
   126    91    99   am
   127    91    92    2
   128   143   146    1
   129   143   142    1
   130   141   140    2
   131    99   100    1
   132   146   148    1
   133    93    94    1
   134   181   182    2
   135   103   100    1
   136   100   101    1
   137   140   142   am
   138   140   139    1
   139    94    96   ar
   140    94    95   ar
   141    96    98   ar
   142   193   192    1
   143   139   138    1
   144    95    97   ar
   145   101   102    2
   146   101   108   am
   147   138   133   am
   148    98    97   ar
   149   192   194    1
   150   192   191    1
   151   108   109    1
   152   123   122    2
   153   133   132    1
   154   133   134    2
   155   191   188    1
   156   114   112    1
   157   132   131    1
   158   132   135    1
   159   122   131   am
   160   122   121    1
   161   136   135    1
   162   109   112    1
   163   109   110    1
   164   111   110    2
   165   124   121    1
   166   124   125    1
   167   187   188    1
   168   112   113    1
   169   126   125   ar
   170   126   128   ar
   171   188   189    1
   172   121   120    1
   173   118   117    2
   174   135   137    1
   175   125   127   ar
   176   128   130   ar
   177   189   190    2
   178   117   116    1
   179   115   116    1
   180   127   129   ar
   181   130   129   ar
   182   116   119    1
