@<TRIPOS>MOLECULE
tmp/1rftA01.pdb
 113 106 0 0 0
SMALL
GASTEIGER

@<TRIPOS>ATOM
      1  N         36.2390   48.1430   -4.8520 N.3     9  SER9       -0.1217
      2  CA        35.8870   47.6510   -3.5420 C.3     9  SER9        0.1889
      3  C         35.9240   48.7550   -2.5310 C.2     9  SER9        0.2288
      4  O         36.6430   49.7280   -2.7000 O.2     9  SER9       -0.2866
      5  CB        36.8380   46.5220   -3.1050 C.3     9  SER9        0.2089
      6  OG        38.2030   46.9070   -3.1090 O.3     9  SER9       -0.2183
      7  N         35.9990   49.4690    1.8540 N.3    11  VAL11      -0.1245
      8  CA        36.2890   48.9520    3.1770 C.3    11  VAL11       0.1561
      9  C         35.7650   50.0030    4.1590 C.2    11  VAL11       0.2260
     10  O         35.7870   51.1980    3.8800 O.2    11  VAL11      -0.2867
     11  CB        37.7900   48.8030    3.4050 C.3    11  VAL11       0.0252
     12  CG1       38.3370   47.6200    2.5960 C.3    11  VAL11       0.0019
     13  CG2       38.4760   50.1170    3.0220 C.3    11  VAL11       0.0019
     14  N         41.7350   51.3780    0.4410 N.3    16  VAL16      -0.1231
     15  CA        42.0690   50.4520   -0.6140 C.3    16  VAL16       0.1692
     16  C         40.8800   50.5000   -1.5730 C.2    16  VAL16       0.2592
     17  O         39.7760   50.8160   -1.1560 O.2    16  VAL16      -0.2718
     18  CB        42.3070   49.0550    0.0090 C.3    16  VAL16       0.0266
     19  CG1       40.9710   48.3200    0.2130 C.3    16  VAL16       0.0020
     20  CG2       43.3050   48.2910   -0.8250 C.3    16  VAL16       0.0020
     21  N         41.0920   50.2420   -2.8550 N.am   17  GLY17      -0.1957
     22  CA        39.9600   50.2850   -3.7700 C.3    17  GLY17       0.1869
     23  C         39.3030   51.6560   -3.8410 C.2    17  GLY17       0.2309
     24  O         40.0140   52.6600   -3.8270 O.2    17  GLY17      -0.2863
     25  N         32.5040   45.5120   -3.3460 N.3    38  VAL38      -0.1245
     26  CA        32.4660   44.6900   -2.1340 C.3    38  VAL38       0.1561
     27  C         32.5310   45.6380   -0.9540 C.2    38  VAL38       0.2260
     28  O         32.9590   46.7730   -1.1170 O.2    38  VAL38      -0.2867
     29  CB        33.6670   43.7300   -1.9810 C.3    38  VAL38       0.0252
     30  CG1       33.8340   42.8830   -3.1900 C.3    38  VAL38       0.0019
     31  CG2       34.9030   44.4980   -1.7250 C.3    38  VAL38       0.0019
     32  N         33.9370   45.2740    2.9020 N.3    40  PHE40      -0.1241
     33  CA        34.6110   44.5090    3.9480 C.3    40  PHE40       0.1605
     34  C         35.0150   45.4810    5.0220 C.2    40  PHE40       0.2264
     35  O         35.0590   46.6910    4.8030 O.2    40  PHE40      -0.2867
     36  CB        35.8860   43.8410    3.4270 C.3    40  PHE40       0.0534
     37  CG        35.6520   42.7780    2.4060 C.ar   40  PHE40      -0.0203
     38  CD1       36.7280   42.2100    1.7530 C.ar   40  PHE40      -0.0042
     39  CD2       34.3720   42.3140    2.1220 C.ar   40  PHE40      -0.0042
     40  CE1       36.5380   41.2000    0.8390 C.ar   40  PHE40      -0.0003
     41  CE2       34.1710   41.3010    1.2040 C.ar   40  PHE40      -0.0003
     42  CZ        35.2580   40.7430    0.5640 C.ar   40  PHE40      -0.0000
     43  N         41.0960   45.8660    4.5620 N.3    43  HIS43      -0.1226
     44  CA        41.6160   45.0940    3.4340 C.3    43  HIS43       0.1752
     45  C         42.0360   43.7080    3.8890 C.2    43  HIS43       0.2597
     46  O         42.2860   43.4840    5.0760 O.2    43  HIS43      -0.2718
     47  CB        42.7620   45.8130    2.7210 C.3    43  HIS43       0.0759
     48  CG        43.9900   45.9830    3.5510 C.ar   43  HIS43       0.0818
     49  ND1       44.6650   44.9170    4.1030 N.ar   43  HIS43      -0.2268
     50  CD2       44.7130   47.0860    3.8510 C.ar   43  HIS43       0.1154
     51  CE1       45.7570   45.3560    4.7040 C.ar   43  HIS43       0.1986
     52  NE2       45.8090   46.6700    4.5650 N.ar   43  HIS43      -0.2212
     53  N         42.1070   42.7720    2.9480 N.am   44  THR44      -0.1939
     54  CA        42.4470   41.3920    3.2850 C.3    44  THR44       0.2028
     55  C         43.8730   41.1600    3.8060 C.2    44  THR44       0.2642
     56  O         44.2710   40.0350    4.0930 O.2    44  THR44      -0.2714
     57  CB        42.1500   40.4920    2.0850 C.3    44  THR44       0.1808
     58  OG1       42.5950   41.1360    0.8920 O.3    44  THR44      -0.2208
     59  CG2       40.6660   40.2650    1.9630 C.3    44  THR44       0.0379
     60  N         44.6250   42.2390    3.9700 N.am   45  GLY45      -0.1954
     61  CA        45.9810   42.1200    4.4510 C.3    45  GLY45       0.1869
     62  C         46.0260   42.0180    5.9500 C.2    45  GLY45       0.2309
     63  O         47.0450   41.6390    6.5140 O.2    45  GLY45      -0.2863
     64  N         40.8530   46.1930   -8.9930 N.3    81  TYR81      -0.1241
     65  CA        40.8270   44.8310   -8.4500 C.3    81  TYR81       0.1605
     66  C         39.4530   44.1870   -8.4310 C.2    81  TYR81       0.2264
     67  O         38.5230   44.7050   -7.8250 O.2    81  TYR81      -0.2867
     68  CB        41.3720   44.8360   -7.0280 C.3    81  TYR81       0.0534
     69  CG        41.3190   43.5070   -6.3300 C.ar   81  TYR81      -0.0201
     70  CD1       42.1200   42.4400   -6.7410 C.ar   81  TYR81      -0.0009
     71  CD2       40.5200   43.3290   -5.2170 C.ar   81  TYR81      -0.0009
     72  CE1       42.1250   41.2390   -6.0480 C.ar   81  TYR81       0.0417
     73  CE2       40.5220   42.1390   -4.5290 C.ar   81  TYR81       0.0417
     74  CZ        41.3260   41.1070   -4.9470 C.ar   81  TYR81       0.1957
     75  OH        41.3520   39.9390   -4.2470 O.3    81  TYR81      -0.2866
     76  N         44.5740   44.5230  -12.5120 N.3   112  VAL112     -0.1245
     77  CA        45.0960   43.8590  -11.3320 C.3   112  VAL112      0.1561
     78  C         45.0510   42.3380  -11.3910 C.2   112  VAL112      0.2260
     79  O         43.9700   41.7590  -11.3780 O.2   112  VAL112     -0.2867
     80  CB        44.3350   44.3010  -10.0890 C.3   112  VAL112      0.0252
     81  CG1       45.0590   43.7940   -8.8300 C.3   112  VAL112      0.0019
     82  CG2       44.2210   45.7980  -10.0860 C.3   112  VAL112      0.0019
     83  N         47.2610   36.6240   -7.7640 N.3   124  TYR124     -0.1241
     84  CA        46.5870   36.5310   -6.4830 C.3   124  TYR124      0.1605
     85  C         45.0970   36.6550   -6.7160 C.2   124  TYR124      0.2264
     86  O         44.3390   37.0060   -5.8210 O.2   124  TYR124     -0.2867
     87  CB        47.0840   37.5770   -5.4700 C.3   124  TYR124      0.0534
     88  CG        47.3700   38.9840   -5.9680 C.ar  124  TYR124     -0.0201
     89  CD1       46.4490   39.6890   -6.7280 C.ar  124  TYR124     -0.0009
     90  CD2       48.5290   39.6530   -5.5650 C.ar  124  TYR124     -0.0009
     91  CE1       46.6730   41.0320   -7.0660 C.ar  124  TYR124      0.0417
     92  CE2       48.7580   40.9950   -5.8970 C.ar  124  TYR124      0.0417
     93  CZ        47.8280   41.6780   -6.6440 C.ar  124  TYR124      0.1957
     94  OH        48.0570   43.0060   -6.9630 O.3   124  TYR124     -0.2866
     95  N         49.6430   48.5820    0.9370 N.3   228  VAL228     -0.1231
     96  CA        48.4360   48.1230    0.2640 C.3   228  VAL228      0.1692
     97  C         47.6290   49.3610   -0.1430 C.2   228  VAL228      0.2592
     98  O         47.4020   50.2420    0.6910 O.2   228  VAL228     -0.2718
     99  CB        47.5770   47.3060    1.2080 C.3   228  VAL228      0.0266
    100  CG1       46.3710   46.7750    0.4660 C.3   228  VAL228      0.0020
    101  CG2       48.3890   46.1930    1.8160 C.3   228  VAL228      0.0020
    102  N         47.2080   49.4290   -1.4090 N.am  229  GLY229     -0.1957
    103  CA        46.4330   50.5690   -1.8850 C.3   229  GLY229      0.1869
    104  C         47.0690   51.4890   -2.9230 C.2   229  GLY229      0.2309
    105  O         46.3810   52.1280   -3.7290 O.2   229  GLY229     -0.2863
    106  N         45.7770   51.5470   -6.4320 N.3   232  ASP232     -0.1239
    107  CA        44.5380   52.2910   -6.6050 C.3   232  ASP232      0.1674
    108  C         44.7440   53.8170   -6.5870 C.2   232  ASP232      0.2266
    109  O         44.2220   54.5330   -7.4430 O.2   232  ASP232     -0.2867
    110  CB        43.5680   51.9060   -5.4890 C.3   232  ASP232      0.1410
    111  CG        43.4260   50.4020   -5.3310 C.2   232  ASP232      0.3668
    112  OD1       43.2900   49.7270   -6.3710 O.co2 232  ASP232     -0.2456
    113  OD2       43.4420   49.8970   -4.1810 O.co2 232  ASP232     -0.2456
@<TRIPOS>BOND
     1    76    77    1
     2    78    79    2
     3    78    77    1
     4    77    80    1
     5    80    82    1
     6    80    81    1
     7    64    65    1
     8    65    66    1
     9    65    68    1
    10    66    67    2
    11    83    84    1
    12   109   108    2
    13    91    89   ar
    14    91    93   ar
    15    68    69    1
    16    94    93    1
    17    70    69   ar
    18    70    72   ar
    19    89    88   ar
    20    85    84    1
    21    85    86    2
    22    93    92   ar
    23   107   108    1
    24   107   106    1
    25   107   110    1
    26    84    87    1
    27   112   111   ar
    28    69    71   ar
    29    72    74   ar
    30    88    90   ar
    31    88    87    1
    32    92    90   ar
    33   110   111    1
    34   111   113   ar
    35    71    73   ar
    36    74    73   ar
    37    74    75    1
    38     1     2    1
    39    23    24    2
    40    23    22    1
    41    22    21    1
    42   105   104    2
    43     2     5    1
    44     2     3    1
    45    25    26    1
    46    30    29    1
    47     6     5    1
    48   104   103    1
    49    21    16   am
    50     4     3    2
    51    26    29    1
    52    26    27    1
    53    29    31    1
    54   103   102    1
    55    16    17    2
    56    16    15    1
    57   102    97   am
    58    28    27    2
    59    20    18    1
    60    15    18    1
    61    15    14    1
    62    97    96    1
    63    97    98    2
    64    18    19    1
    65    96    95    1
    66    96    99    1
    67   100    99    1
    68    42    40   ar
    69    42    41   ar
    70    40    38   ar
    71    58    57    1
    72    41    39   ar
    73    99   101    1
    74    38    37   ar
    75     7     8    1
    76    59    57    1
    77    57    54    1
    78    39    37   ar
    79    37    36    1
    80    12    11    1
    81    47    44    1
    82    47    48    1
    83    32    33    1
    84    53    54    1
    85    53    45   am
    86    13    11    1
    87     8    11    1
    88     8     9    1
    89    54    55    1
    90    36    33    1
    91    44    45    1
    92    44    43    1
    93    48    50   ar
    94    48    49   ar
    95    55    60   am
    96    55    56    2
    97    50    52   ar
    98    10     9    2
    99    45    46    2
   100    33    34    1
   101    60    61    1
   102    49    51   ar
   103    61    62    1
   104    52    51   ar
   105    35    34    2
   106    62    63    2
