@<TRIPOS>MOLECULE
tmp/1rfuF00.pdb
 164 155 0 0 0
SMALL
GASTEIGER

@<TRIPOS>ATOM
      1  N        -26.8760   17.7880  -29.2640 N.3    12  SER12      -0.1217
      2  CA       -27.3940   17.9730  -27.9230 C.3    12  SER12       0.1889
      3  C        -26.3570   17.6960  -26.8700 C.2    12  SER12       0.2288
      4  O        -25.4120   16.9490  -27.0880 O.2    12  SER12      -0.2866
      5  CB       -28.5290   17.0030  -27.6990 C.3    12  SER12       0.2089
      6  OG       -28.0290   15.6880  -27.8660 O.3    12  SER12      -0.2183
      7  N        -26.1770   16.8140  -22.5460 N.3    14  VAL14      -0.1245
      8  CA       -26.9140   16.4530  -21.3470 C.3    14  VAL14       0.1561
      9  C        -25.9640   16.5600  -20.1790 C.2    14  VAL14       0.2260
     10  O        -24.8110   16.1530  -20.2830 O.2    14  VAL14      -0.2867
     11  CB       -27.4210   15.0200  -21.4060 C.3    14  VAL14       0.0252
     12  CG1      -28.4250   14.8860  -22.5090 C.3    14  VAL14       0.0019
     13  CG2      -26.2780   14.0770  -21.6320 C.3    14  VAL14       0.0019
     14  N        -25.0760   10.9440  -24.4420 N.3    19  VAL19      -0.1231
     15  CA       -26.0430   11.1110  -25.5070 C.3    19  VAL19       0.1692
     16  C        -25.6580   12.4420  -26.1550 C.2    19  VAL19       0.2592
     17  O        -25.0530   13.2840  -25.4910 O.2    19  VAL19      -0.2718
     18  CB       -27.4420   11.2030  -24.8790 C.3    19  VAL19       0.0266
     19  CG1      -28.0210   12.5880  -25.0930 C.3    19  VAL19       0.0020
     20  CG2      -28.3250   10.0900  -25.3970 C.3    19  VAL19       0.0020
     21  N        -25.9890   12.6500  -27.4260 N.am   20  GLY20      -0.1957
     22  CA       -25.6250   13.9110  -28.0510 C.3    20  GLY20       0.1869
     23  C        -24.1140   14.1060  -28.1050 C.2    20  GLY20       0.2309
     24  O        -23.3590   13.1380  -28.2470 O.2    20  GLY20      -0.2863
     25  N        -28.5290   21.9590  -27.4880 N.3    41  VAL41      -0.1245
     26  CA       -29.3950   21.9970  -26.3200 C.3    41  VAL41       0.1561
     27  C        -28.6170   21.5820  -25.0900 C.2    41  VAL41       0.2260
     28  O        -27.5870   20.9340  -25.2020 O.2    41  VAL41      -0.2867
     29  CB       -30.5190   20.9870  -26.4600 C.3    41  VAL41       0.0252
     30  CG1      -31.3560   21.2890  -27.6880 C.3    41  VAL41       0.0019
     31  CG2      -29.9090   19.5950  -26.5670 C.3    41  VAL41       0.0019
     32  N        -29.7190   19.7670  -21.6350 N.3    43  PHE43      -0.1241
     33  CA       -30.7500   19.2570  -20.7510 C.3    43  PHE43       0.1605
     34  C        -30.1090   18.5810  -19.5570 C.2    43  PHE43       0.2264
     35  O        -28.8980   18.3370  -19.5240 O.2    43  PHE43      -0.2867
     36  CB       -31.6590   18.2330  -21.4440 C.3    43  PHE43       0.0534
     37  CG       -32.3780   18.7570  -22.6580 C.ar   43  PHE43      -0.0203
     38  CD1      -32.5630   20.1230  -22.8570 C.ar   43  PHE43      -0.0042
     39  CD2      -32.8980   17.8680  -23.6010 C.ar   43  PHE43      -0.0042
     40  CE1      -33.2610   20.5910  -23.9870 C.ar   43  PHE43      -0.0003
     41  CE2      -33.5910   18.3260  -24.7190 C.ar   43  PHE43      -0.0003
     42  CZ       -33.7730   19.6860  -24.9140 C.ar   43  PHE43      -0.0000
     43  N        -31.3460   12.7790  -20.8840 N.3    46  HIS46      -0.1226
     44  CA       -32.0150   12.5520  -22.1540 C.3    46  HIS46       0.1752
     45  C        -33.4800   12.2660  -21.9510 C.2    46  HIS46       0.2596
     46  O        -33.8760   11.6720  -20.9540 O.2    46  HIS46      -0.2718
     47  CB       -31.3380   11.4420  -22.9500 C.3    46  HIS46       0.0759
     48  CG       -31.5920   10.0690  -22.4280 C.ar   46  HIS46       0.0818
     49  ND1      -32.8550    9.5250  -22.3530 N.ar   46  HIS46      -0.2268
     50  CD2      -30.7340    9.0890  -22.0620 C.ar   46  HIS46       0.1154
     51  CE1      -32.7620    8.2620  -21.9750 C.ar   46  HIS46       0.1986
     52  NE2      -31.4860    7.9730  -21.7930 N.ar   46  HIS46      -0.2212
     53  N        -34.2800   12.7030  -22.9120 N.am   47  THR47      -0.1953
     54  CA       -35.7160   12.5900  -22.8280 C.3    47  THR47       0.1897
     55  C        -36.2580   11.2120  -22.5390 C.2    47  THR47       0.2313
     56  O        -37.4540   11.0720  -22.2670 O.2    47  THR47      -0.2863
     57  CB       -36.3660   13.1880  -24.0810 C.3    47  THR47       0.1794
     58  OG1      -35.6400   12.7800  -25.2470 O.3    47  THR47      -0.2208
     59  CG2      -36.3280   14.7040  -24.0110 C.3    47  THR47       0.0378
     60  N        -29.0240   15.6630  -32.8580 N.3    84  TYR84      -0.1241
     61  CA       -30.1730   16.1930  -32.1430 C.3    84  TYR84       0.1605
     62  C        -30.4110   17.6830  -32.1680 C.2    84  TYR84       0.2264
     63  O        -29.5270   18.4480  -31.7940 O.2    84  TYR84      -0.2867
     64  CB       -30.1080   15.7990  -30.6770 C.3    84  TYR84       0.0534
     65  CG       -31.4360   15.9180  -29.9670 C.ar   84  TYR84      -0.0201
     66  CD1      -32.3210   14.8530  -29.9490 C.ar   84  TYR84      -0.0009
     67  CD2      -31.8070   17.0880  -29.3060 C.ar   84  TYR84      -0.0009
     68  CE1      -33.5270   14.9370  -29.2970 C.ar   84  TYR84       0.0417
     69  CE2      -33.0250   17.1810  -28.6500 C.ar   84  TYR84       0.0417
     70  CZ       -33.8780   16.0970  -28.6530 C.ar   84  TYR84       0.1957
     71  OH       -35.1110   16.1580  -28.0340 O.3    84  TYR84      -0.2866
     72  N        -26.4510   12.6320  -38.9360 N.3   113  ASP113     -0.1239
     73  CA       -27.2430   11.6450  -38.2220 C.3   113  ASP113      0.1674
     74  C        -28.6250   12.2840  -38.1900 C.2   113  ASP113      0.2266
     75  O        -28.8570   13.2320  -37.4330 O.2   113  ASP113     -0.2867
     76  CB       -26.7190   11.4460  -36.7890 C.3   113  ASP113      0.1410
     77  CG       -27.4200   10.2880  -36.0500 C.2   113  ASP113      0.3668
     78  OD1      -27.2490   10.1530  -34.8180 O.co2 113  ASP113     -0.2456
     79  OD2      -28.1420    9.5020  -36.6960 O.co2 113  ASP113     -0.2456
     80  N        -31.3410   12.4960  -36.7270 N.3   115  VAL115     -0.1245
     81  CA       -32.0140   12.2030  -35.4640 C.3   115  VAL115      0.1561
     82  C        -33.3970   12.8150  -35.3810 C.2   115  VAL115      0.2260
     83  O        -33.5270   14.0280  -35.2520 O.2   115  VAL115     -0.2867
     84  CB       -31.1750   12.6840  -34.2890 C.3   115  VAL115      0.0252
     85  CG1      -31.9500   12.5760  -33.0100 C.3   115  VAL115      0.0019
     86  CG2      -29.9310   11.8460  -34.2100 C.3   115  VAL115      0.0019
     87  N        -37.7160    7.1090  -32.9380 N.3   118  ASP118     -0.1239
     88  CA       -37.4330    5.7320  -32.4820 C.3   118  ASP118      0.1674
     89  C        -38.5060    4.7670  -33.0160 C.2   118  ASP118      0.2266
     90  O        -39.6900    5.1000  -33.0320 O.2   118  ASP118     -0.2867
     91  CB       -37.4990    5.7000  -30.9580 C.3   118  ASP118      0.1410
     92  CG       -36.2330    5.1650  -30.3250 C.2   118  ASP118      0.3668
     93  OD1      -35.1200    5.6470  -30.6540 O.co2 118  ASP118     -0.2456
     94  OD2      -36.3510    4.2560  -29.4770 O.co2 118  ASP118     -0.2456
     95  N        -39.3100   11.7810  -31.8370 N.3   127  TYR127     -0.1241
     96  CA       -39.1360   12.3780  -30.5270 C.3   127  TYR127      0.1605
     97  C        -38.6490   13.8140  -30.6230 C.2   127  TYR127      0.2264
     98  O        -37.9800   14.3270  -29.7340 O.2   127  TYR127     -0.2867
     99  CB       -38.2280   11.5450  -29.6200 C.3   127  TYR127      0.0534
    100  CG       -37.0170   10.8610  -30.2180 C.ar  127  TYR127     -0.0201
    101  CD1      -35.9800   11.5760  -30.8360 C.ar  127  TYR127     -0.0009
    102  CD2      -36.8300    9.4990  -30.0050 C.ar  127  TYR127     -0.0009
    103  CE1      -34.7690   10.9320  -31.2060 C.ar  127  TYR127      0.0417
    104  CE2      -35.6520    8.8490  -30.3630 C.ar  127  TYR127      0.0417
    105  CZ       -34.6220    9.5510  -30.9520 C.ar  127  TYR127      0.1957
    106  OH       -33.4690    8.8300  -31.2260 O.3   127  TYR127     -0.2866
    107  N        -31.9980    5.7530  -38.8610 N.3   150  ASN150     -0.1240
    108  CA       -32.7550    4.8270  -38.0410 C.3   150  ASN150      0.1653
    109  C        -33.6770    4.1090  -39.0050 C.2   150  ASN150      0.2266
    110  O        -34.2120    4.7510  -39.9020 O.2   150  ASN150     -0.2867
    111  CB       -33.6180    5.6960  -37.1430 C.3   150  ASN150      0.1155
    112  CG       -33.8400    5.1210  -35.8090 C.2   150  ASN150      0.2627
    113  OD1      -34.4610    5.7560  -34.9510 O.2   150  ASN150     -0.2716
    114  ND2      -33.3460    3.9090  -35.6000 N.am  150  ASN150     -0.0877
    115  N        -36.2960    6.5300  -38.9880 N.3   153  GLU153     -0.1245
    116  CA       -35.9450    7.7770  -39.6400 C.3   153  GLU153      0.1567
    117  C        -35.7670    7.5370  -41.1310 C.2   153  GLU153      0.2260
    118  O        -36.3290    8.2630  -41.9490 O.2   153  GLU153     -0.2867
    119  CB       -34.6780    8.3460  -39.0020 C.3   153  GLU153      0.0388
    120  CG       -34.8630    8.5960  -37.5170 C.3   153  GLU153      0.1160
    121  CD       -33.5590    8.7780  -36.7900 C.2   153  GLU153      0.3649
    122  OE1      -32.5800    8.1500  -37.2190 O.co2 153  GLU153     -0.2457
    123  OE2      -33.5140    9.5260  -35.7890 O.co2 153  GLU153     -0.2457
    124  N        -31.3980    1.4510  -25.2070 N.3   230  PHE230     -0.1227
    125  CA       -30.3930    2.4350  -24.8360 C.3   230  PHE230      0.1736
    126  C        -30.6790    3.7190  -25.5830 C.2   230  PHE230      0.2595
    127  O        -31.4890    3.7340  -26.4930 O.2   230  PHE230     -0.2718
    128  CB       -28.9980    1.9510  -25.2110 C.3   230  PHE230      0.0547
    129  CG       -28.7010    0.5670  -24.7470 C.ar  230  PHE230     -0.0202
    130  CD1      -29.1010   -0.5310  -25.5030 C.ar  230  PHE230     -0.0042
    131  CD2      -28.0840    0.3500  -23.5240 C.ar  230  PHE230     -0.0042
    132  CE1      -28.8960   -1.8390  -25.0480 C.ar  230  PHE230     -0.0003
    133  CE2      -27.8760   -0.9450  -23.0590 C.ar  230  PHE230     -0.0003
    134  CZ       -28.2860   -2.0450  -23.8260 C.ar  230  PHE230     -0.0000
    135  N        -30.0410    4.8040  -25.1830 N.am  231  VAL231     -0.1966
    136  CA       -30.2190    6.0550  -25.8820 C.3   231  VAL231      0.1727
    137  C        -28.8440    6.7010  -25.9600 C.2   231  VAL231      0.2617
    138  O        -28.1150    6.7910  -24.9690 O.2   231  VAL231     -0.2715
    139  CB       -31.2090    6.9730  -25.1650 C.3   231  VAL231      0.0290
    140  CG1      -31.3060    8.3020  -25.9070 C.3   231  VAL231      0.0023
    141  CG2      -32.5680    6.3100  -25.0970 C.3   231  VAL231      0.0023
    142  N        -28.4790    7.1280  -27.1560 N.am  232  GLY232     -0.1940
    143  CA       -27.1770    7.7250  -27.3410 C.3   232  GLY232      0.2014
    144  C        -26.3680    6.7780  -28.1950 C.2   232  GLY232      0.2640
    145  O        -25.3210    7.1530  -28.7340 O.2   232  GLY232     -0.2714
    146  N        -26.8490    5.5420  -28.3340 N.am  233  THR233     -0.1936
    147  CA       -26.1240    4.5670  -29.1500 C.3   233  THR233      0.2028
    148  C        -25.8780    5.1660  -30.5260 C.2   233  THR233      0.2643
    149  O        -24.7400    5.2850  -30.9900 O.2   233  THR233     -0.2714
    150  CB       -26.9090    3.2450  -29.3050 C.3   233  THR233      0.1808
    151  OG1      -28.2970    3.5240  -29.5160 O.3   233  THR233     -0.2208
    152  CG2      -26.7510    2.3950  -28.0700 C.3   233  THR233      0.0379
    153  N        -26.9660    5.5730  -31.1620 N.am  234  GLY234     -0.1939
    154  CA       -26.8600    6.1560  -32.4820 C.3   234  GLY234      0.2014
    155  C        -25.7120    7.1330  -32.5810 C.2   234  GLY234      0.2638
    156  O        -24.8050    6.9740  -33.4040 O.2   234  GLY234     -0.2714
    157  N        -25.7590    8.1420  -31.7200 N.am  235  ASP235     -0.1971
    158  CA       -24.7600    9.2010  -31.6790 C.3   235  ASP235      0.1709
    159  C        -23.3310    8.6720  -31.5340 C.2   235  ASP235      0.2293
    160  O        -22.4000    9.1610  -32.1920 O.2   235  ASP235     -0.2864
    161  CB       -25.1270   10.1430  -30.5390 C.3   235  ASP235      0.1436
    162  CG       -26.5380   10.6720  -30.6730 C.2   235  ASP235      0.3671
    163  OD1      -26.7160   11.6160  -31.4590 O.co2 235  ASP235     -0.2456
    164  OD2      -27.4680   10.1450  -30.0260 O.co2 235  ASP235     -0.2456
@<TRIPOS>BOND
     1   118   117    2
     2   117   116    1
     3   110   109    2
     4   116   119    1
     5   116   115    1
     6   109   108    1
     7   119   120    1
     8    72    73    1
     9   107   108    1
    10    73    74    1
    11    73    76    1
    12    74    75    2
    13   108   111    1
    14   120   121    1
    15   122   121   ar
    16   111   112    1
    17   121   123   ar
    18    76    77    1
    19    80    81    1
    20    79    77   ar
    21    77    78   ar
    22   112   114   am
    23   112   113    2
    24    81    82    1
    25    81    84    1
    26    82    83    2
    27    84    86    1
    28    84    85    1
    29   156   155    2
    30    90    89    2
    31    89    88    1
    32    87    88    1
    33    60    61    1
    34   155   154    1
    35   155   157   am
    36   154   153    1
    37    88    91    1
    38   160   159    2
    39    62    61    1
    40    62    63    2
    41    61    64    1
    42    95    96    1
    43   157   158    1
    44   158   159    1
    45   158   161    1
    46   163   162   ar
    47   106   105    1
    48   103   105   ar
    49   103   101   ar
    50   153   148   am
    51   149   148    2
    52    91    92    1
    53   105   104   ar
    54   101   100   ar
    55    64    65    1
    56   162   161    1
    57   162   164   ar
    58    93    92   ar
    59    97    96    1
    60    97    98    2
    61    96    99    1
    62   148   147    1
    63   104   102   ar
    64    92    94   ar
    65   100   102   ar
    66   100    99    1
    67    65    66   ar
    68    65    67   ar
    69    66    68   ar
    70   151   150    1
    71    67    69   ar
    72   150   147    1
    73   150   152    1
    74    68    70   ar
    75     1     2    1
    76   147   146    1
    77   145   144    2
    78    70    69   ar
    79    70    71    1
    80   146   144   am
    81    24    23    2
    82   144   143    1
    83    23    22    1
    84    22    21    1
    85     2     5    1
    86     2     3    1
    87     6     5    1
    88    30    29    1
    89    25    26    1
    90    21    16   am
    91   143   142    1
    92   142   137   am
    93     4     3    2
    94    31    29    1
    95   127   126    2
    96    29    26    1
    97    26    27    1
    98    16    15    1
    99    16    17    2
   100   137   136    1
   101   137   138    2
   102   140   139    1
   103   136   135    1
   104   136   139    1
   105   126   135   am
   106   126   125    1
   107    15    18    1
   108    15    14    1
   109   130   132   ar
   110   130   129   ar
   111    20    18    1
   112    58    57    1
   113   128   125    1
   114   128   129    1
   115   124   125    1
   116    28    27    2
   117   139   141    1
   118    19    18    1
   119   132   134   ar
   120    42    41   ar
   121    42    40   ar
   122   129   131   ar
   123    41    39   ar
   124    57    59    1
   125    57    54    1
   126    40    38   ar
   127   134   133   ar
   128    39    37   ar
   129   131   133   ar
   130    47    48    1
   131    47    44    1
   132    53    54    1
   133    53    45   am
   134    38    37   ar
   135    54    55    1
   136    37    36    1
   137     7     8    1
   138    55    56    2
   139    12    11    1
   140    48    49   ar
   141    48    50   ar
   142    49    51   ar
   143    44    45    1
   144    44    43    1
   145    50    52   ar
   146    51    52   ar
   147    45    46    2
   148    32    33    1
   149    13    11    1
   150    36    33    1
   151    11     8    1
   152     8     9    1
   153    33    34    1
   154    10     9    2
   155    34    35    2
