@<TRIPOS>MOLECULE
tmp/1rfuF01.pdb
 225 214 0 0 0
SMALL
GASTEIGER

@<TRIPOS>ATOM
      1  N        -26.4510   12.6320  -38.9360 N.3   113  ASP113     -0.1239
      2  CA       -27.2430   11.6450  -38.2220 C.3   113  ASP113      0.1674
      3  C        -28.6250   12.2840  -38.1900 C.2   113  ASP113      0.2266
      4  O        -28.8570   13.2320  -37.4330 O.2   113  ASP113     -0.2867
      5  CB       -26.7190   11.4460  -36.7890 C.3   113  ASP113      0.1410
      6  CG       -27.4200   10.2880  -36.0500 C.2   113  ASP113      0.3668
      7  OD1      -27.2490   10.1530  -34.8180 O.co2 113  ASP113     -0.2456
      8  OD2      -28.1420    9.5020  -36.6960 O.co2 113  ASP113     -0.2456
      9  N        -31.3410   12.4960  -36.7270 N.3   115  VAL115     -0.1245
     10  CA       -32.0140   12.2030  -35.4640 C.3   115  VAL115      0.1561
     11  C        -33.3970   12.8150  -35.3810 C.2   115  VAL115      0.2260
     12  O        -33.5270   14.0280  -35.2520 O.2   115  VAL115     -0.2867
     13  CB       -31.1750   12.6840  -34.2890 C.3   115  VAL115      0.0252
     14  CG1      -31.9500   12.5760  -33.0100 C.3   115  VAL115      0.0019
     15  CG2      -29.9310   11.8460  -34.2100 C.3   115  VAL115      0.0019
     16  N        -37.7160    7.1090  -32.9380 N.3   118  ASP118     -0.1225
     17  CA       -37.4330    5.7320  -32.4820 C.3   118  ASP118      0.1805
     18  C        -38.5060    4.7670  -33.0160 C.2   118  ASP118      0.2597
     19  O        -39.6900    5.1000  -33.0320 O.2   118  ASP118     -0.2718
     20  CB       -37.4990    5.7000  -30.9580 C.3   118  ASP118      0.1424
     21  CG       -36.2330    5.1650  -30.3250 C.2   118  ASP118      0.3668
     22  OD1      -35.1200    5.6470  -30.6540 O.co2 118  ASP118     -0.2456
     23  OD2      -36.3510    4.2560  -29.4770 O.co2 118  ASP118     -0.2456
     24  N        -38.0930    3.5720  -33.4370 N.am  119  GLN119     -0.1979
     25  CA       -39.0080    2.5600  -33.9880 C.3   119  GLN119      0.1601
     26  C        -39.1840    1.4560  -32.9790 C.2   119  GLN119      0.2287
     27  O        -39.2590    0.2820  -33.3360 O.2   119  GLN119     -0.2864
     28  CB       -38.4580    1.9380  -35.2820 C.3   119  GLN119      0.0394
     29  CG       -37.0680    2.4030  -35.6600 C.3   119  GLN119      0.0908
     30  CD       -36.0250    1.2820  -35.7390 C.2   119  GLN119      0.2608
     31  OE1      -36.3320    0.1140  -36.0150 O.2   119  GLN119     -0.2717
     32  NE2      -34.7660    1.6520  -35.5180 N.am  119  GLN119     -0.0878
     33  N        -39.3100   11.7810  -31.8370 N.3   127  TYR127     -0.1241
     34  CA       -39.1360   12.3780  -30.5270 C.3   127  TYR127      0.1605
     35  C        -38.6490   13.8140  -30.6230 C.2   127  TYR127      0.2264
     36  O        -37.9800   14.3270  -29.7340 O.2   127  TYR127     -0.2867
     37  CB       -38.2280   11.5450  -29.6200 C.3   127  TYR127      0.0534
     38  CG       -37.0170   10.8610  -30.2180 C.ar  127  TYR127     -0.0201
     39  CD1      -35.9800   11.5760  -30.8360 C.ar  127  TYR127     -0.0009
     40  CD2      -36.8300    9.4990  -30.0050 C.ar  127  TYR127     -0.0009
     41  CE1      -34.7690   10.9320  -31.2060 C.ar  127  TYR127      0.0417
     42  CE2      -35.6520    8.8490  -30.3630 C.ar  127  TYR127      0.0417
     43  CZ       -34.6220    9.5510  -30.9520 C.ar  127  TYR127      0.1957
     44  OH       -33.4690    8.8300  -31.2260 O.3   127  TYR127     -0.2866
     45  N        -26.5620    8.2650  -41.1620 N.3   148  THR148     -0.1218
     46  CA       -26.6350    7.1410  -40.2700 C.3   148  THR148      0.1862
     47  C        -28.0560    7.0910  -39.7610 C.2   148  THR148      0.2287
     48  O        -28.3030    7.2570  -38.5730 O.2   148  THR148     -0.2866
     49  CB       -25.6750    7.3500  -39.1240 C.3   148  THR148      0.1770
     50  OG1      -26.1320    8.4450  -38.3270 O.3   148  THR148     -0.2211
     51  CG2      -24.2930    7.7000  -39.6700 C.3   148  THR148      0.0375
     52  N        -31.9980    5.7530  -38.8610 N.3   150  ASN150     -0.1240
     53  CA       -32.7550    4.8270  -38.0410 C.3   150  ASN150      0.1653
     54  C        -33.6770    4.1090  -39.0050 C.2   150  ASN150      0.2266
     55  O        -34.2120    4.7510  -39.9020 O.2   150  ASN150     -0.2867
     56  CB       -33.6180    5.6960  -37.1430 C.3   150  ASN150      0.1155
     57  CG       -33.8400    5.1210  -35.8090 C.2   150  ASN150      0.2627
     58  OD1      -34.4610    5.7560  -34.9510 O.2   150  ASN150     -0.2716
     59  ND2      -33.3460    3.9090  -35.6000 N.am  150  ASN150     -0.0877
     60  N        -36.2960    6.5300  -38.9880 N.3   153  GLU153     -0.1245
     61  CA       -35.9450    7.7770  -39.6400 C.3   153  GLU153      0.1567
     62  C        -35.7670    7.5370  -41.1310 C.2   153  GLU153      0.2260
     63  O        -36.3290    8.2630  -41.9490 O.2   153  GLU153     -0.2867
     64  CB       -34.6780    8.3460  -39.0020 C.3   153  GLU153      0.0388
     65  CG       -34.8630    8.5960  -37.5170 C.3   153  GLU153      0.1160
     66  CD       -33.5590    8.7780  -36.7900 C.2   153  GLU153      0.3649
     67  OE1      -32.5800    8.1500  -37.2190 O.co2 153  GLU153     -0.2457
     68  OE2      -33.5140    9.5260  -35.7890 O.co2 153  GLU153     -0.2457
     69  N        -28.5410    1.8730  -39.1940 N.3   186  THR186     -0.1203
     70  CA       -27.9650    1.3170  -37.9830 C.3   186  THR186      0.1994
     71  C        -28.6750    0.0920  -37.4630 C.2   186  THR186      0.2618
     72  O        -28.0990   -0.6600  -36.6710 O.2   186  THR186     -0.2717
     73  CB       -27.9130    2.3700  -36.8860 C.3   186  THR186      0.1784
     74  OG1      -29.2210    2.9010  -36.6750 O.3   186  THR186     -0.2211
     75  CG2      -27.0000    3.5020  -37.2970 C.3   186  THR186      0.0376
     76  N        -29.9160   -0.1180  -37.9060 N.am  187  SER187     -0.1951
     77  CA       -30.6840   -1.2870  -37.4680 C.3   187  SER187      0.1924
     78  C        -32.1500   -1.3410  -37.9510 C.2   187  SER187      0.2314
     79  O        -32.7060   -0.3290  -38.4040 O.2   187  SER187     -0.2863
     80  CB       -30.6390   -1.3750  -35.9420 C.3   187  SER187      0.2116
     81  OG       -31.0270   -0.1480  -35.3670 O.3   187  SER187     -0.2180
     82  N        -30.0550   -7.9310  -34.1530 N.3   199  LEU199     -0.1245
     83  CA       -30.3630   -6.6970  -34.8680 C.3   199  LEU199      0.1561
     84  C        -29.6090   -6.7030  -36.1880 C.2   199  LEU199      0.2260
     85  O        -28.4390   -7.0870  -36.2410 O.2   199  LEU199     -0.2867
     86  CB       -29.9420   -5.4720  -34.0660 C.3   199  LEU199      0.0270
     87  CG       -30.9460   -4.9560  -33.0470 C.3   199  LEU199      0.0019
     88  CD1      -30.4640   -3.6140  -32.5290 C.3   199  LEU199      0.0001
     89  CD2      -32.3120   -4.8090  -33.6910 C.3   199  LEU199      0.0001
     90  N        -28.2200   -4.5880  -39.5780 N.3   201  ALA201     -0.1245
     91  CA       -27.8610   -3.2490  -39.9920 C.3   201  ALA201      0.1562
     92  C        -27.3270   -3.3640  -41.4020 C.2   201  ALA201      0.2260
     93  O        -26.5730   -4.2910  -41.7180 O.2   201  ALA201     -0.2867
     94  CB       -26.8040   -2.6730  -39.0570 C.3   201  ALA201      0.0290
     95  N        -26.2170   -8.1630  -35.5940 N.3   223  MET223     -0.1230
     96  CA       -25.6930   -7.7890  -34.3000 C.3   223  MET223      0.1702
     97  C        -26.4690   -8.5380  -33.2440 C.2   223  MET223      0.2592
     98  O        -27.6310   -8.8900  -33.4440 O.2   223  MET223     -0.2718
     99  CB       -25.8680   -6.2820  -34.1100 C.3   223  MET223      0.0401
    100  CG       -25.4500   -5.4860  -35.3330 C.3   223  MET223      0.0596
    101  SD       -25.7890   -3.7250  -35.2200 S.3   223  MET223     -0.1393
    102  CE       -27.5460   -3.7330  -35.2960 C.3   223  MET223      0.0692
    103  N        -25.8270   -8.8000  -32.1200 N.am  224  HIS224     -0.1962
    104  CA       -26.5330   -9.4910  -31.0740 C.3   224  HIS224      0.1787
    105  C        -27.3210   -8.4810  -30.2690 C.2   224  HIS224      0.2620
    106  O        -26.7460   -7.6040  -29.6220 O.2   224  HIS224     -0.2715
    107  CB       -25.5780  -10.2470  -30.1780 C.3   224  HIS224      0.0785
    108  CG       -26.2150  -11.4350  -29.5430 C.ar  224  HIS224      0.0821
    109  ND1      -26.9520  -12.3470  -30.2710 N.ar  224  HIS224     -0.2267
    110  CD2      -26.2520  -11.8590  -28.2570 C.ar  224  HIS224      0.1154
    111  CE1      -27.4150  -13.2840  -29.4610 C.ar  224  HIS224      0.1986
    112  NE2      -27.0040  -13.0120  -28.2330 N.ar  224  HIS224     -0.2212
    113  N        -28.6440   -8.6180  -30.3250 N.am  225  LYS225     -0.1963
    114  CA       -29.5720   -7.7150  -29.6430 C.3   225  LYS225      0.1728
    115  C        -29.5000   -7.7650  -28.1280 C.2   225  LYS225      0.2616
    116  O        -29.4140   -8.8430  -27.5430 O.2   225  LYS225     -0.2715
    117  CB       -31.0020   -8.0330  -30.0550 C.3   225  LYS225      0.0311
    118  CG       -32.0110   -7.0370  -29.5260 C.3   225  LYS225      0.0038
    119  CD       -33.4470   -7.5460  -29.6890 C.3   225  LYS225      0.0206
    120  CE       -33.7690   -7.9590  -31.1310 C.3   225  LYS225      0.1093
    121  NZ       -35.1840   -8.4220  -31.2930 N.3   225  LYS225     -0.1314
    122  N        -29.5450   -6.6040  -27.4850 N.am  226  VAL226     -0.1977
    123  CA       -29.5020   -6.5890  -26.0350 C.3   226  VAL226      0.1596
    124  C        -30.9130   -6.3660  -25.5520 C.2   226  VAL226      0.2287
    125  O        -31.6510   -5.5750  -26.1310 O.2   226  VAL226     -0.2864
    126  CB       -28.5880   -5.4750  -25.4850 C.3   226  VAL226      0.0276
    127  CG1      -28.7370   -5.3860  -23.9770 C.3   226  VAL226      0.0022
    128  CG2      -27.1370   -5.7720  -25.8280 C.3   226  VAL226      0.0022
    129  N        -32.6570   -4.5160  -24.0720 N.3   228  ALA228     -0.1231
    130  CA       -32.8640   -3.1970  -23.5150 C.3   228  ALA228      0.1694
    131  C        -32.8930   -2.1010  -24.5430 C.2   228  ALA228      0.2592
    132  O        -32.4890   -2.2910  -25.6880 O.2   228  ALA228     -0.2718
    133  CB       -31.7970   -2.9040  -22.5120 C.3   228  ALA228      0.0304
    134  N        -33.3650   -0.9410  -24.1020 N.am  229  VAL229     -0.1966
    135  CA       -33.4690    0.2330  -24.9380 C.3   229  VAL229      0.1727
    136  C        -32.4770    1.2730  -24.4570 C.2   229  VAL229      0.2616
    137  O        -32.6840    1.9070  -23.4160 O.2   229  VAL229     -0.2715
    138  CB       -34.8460    0.8360  -24.8350 C.3   229  VAL229      0.0290
    139  CG1      -34.9040    2.1130  -25.6400 C.3   229  VAL229      0.0023
    140  CG2      -35.8660   -0.1480  -25.3150 C.3   229  VAL229      0.0023
    141  N        -31.3980    1.4510  -25.2070 N.am  230  PHE230     -0.1960
    142  CA       -30.3930    2.4350  -24.8360 C.3   230  PHE230      0.1771
    143  C        -30.6790    3.7190  -25.5830 C.2   230  PHE230      0.2619
    144  O        -31.4890    3.7340  -26.4930 O.2   230  PHE230     -0.2715
    145  CB       -28.9980    1.9510  -25.2110 C.3   230  PHE230      0.0574
    146  CG       -28.7010    0.5670  -24.7470 C.ar  230  PHE230     -0.0200
    147  CD1      -29.1010   -0.5310  -25.5030 C.ar  230  PHE230     -0.0042
    148  CD2      -28.0840    0.3500  -23.5240 C.ar  230  PHE230     -0.0042
    149  CE1      -28.8960   -1.8390  -25.0480 C.ar  230  PHE230     -0.0003
    150  CE2      -27.8760   -0.9450  -23.0590 C.ar  230  PHE230     -0.0003
    151  CZ       -28.2860   -2.0450  -23.8260 C.ar  230  PHE230     -0.0000
    152  N        -30.0410    4.8040  -25.1830 N.am  231  VAL231     -0.1963
    153  CA       -30.2190    6.0550  -25.8820 C.3   231  VAL231      0.1727
    154  C        -28.8440    6.7010  -25.9600 C.2   231  VAL231      0.2617
    155  O        -28.1150    6.7910  -24.9690 O.2   231  VAL231     -0.2715
    156  CB       -31.2090    6.9730  -25.1650 C.3   231  VAL231      0.0290
    157  CG1      -31.3060    8.3020  -25.9070 C.3   231  VAL231      0.0023
    158  CG2      -32.5680    6.3100  -25.0970 C.3   231  VAL231      0.0023
    159  N        -28.4790    7.1280  -27.1560 N.am  232  GLY232     -0.1940
    160  CA       -27.1770    7.7250  -27.3410 C.3   232  GLY232      0.2014
    161  C        -26.3680    6.7780  -28.1950 C.2   232  GLY232      0.2640
    162  O        -25.3210    7.1530  -28.7340 O.2   232  GLY232     -0.2714
    163  N        -26.8490    5.5420  -28.3340 N.am  233  THR233     -0.1936
    164  CA       -26.1240    4.5670  -29.1500 C.3   233  THR233      0.2028
    165  C        -25.8780    5.1660  -30.5260 C.2   233  THR233      0.2643
    166  O        -24.7400    5.2850  -30.9900 O.2   233  THR233     -0.2714
    167  CB       -26.9090    3.2450  -29.3050 C.3   233  THR233      0.1808
    168  OG1      -28.2970    3.5240  -29.5160 O.3   233  THR233     -0.2208
    169  CG2      -26.7510    2.3950  -28.0700 C.3   233  THR233      0.0379
    170  N        -26.9660    5.5730  -31.1620 N.am  234  GLY234     -0.1939
    171  CA       -26.8600    6.1560  -32.4820 C.3   234  GLY234      0.2014
    172  C        -25.7120    7.1330  -32.5810 C.2   234  GLY234      0.2638
    173  O        -24.8050    6.9740  -33.4040 O.2   234  GLY234     -0.2714
    174  N        -25.7590    8.1420  -31.7200 N.am  235  ASP235     -0.1971
    175  CA       -24.7600    9.2010  -31.6790 C.3   235  ASP235      0.1709
    176  C        -23.3310    8.6720  -31.5340 C.2   235  ASP235      0.2293
    177  O        -22.4000    9.1610  -32.1920 O.2   235  ASP235     -0.2864
    178  CB       -25.1270   10.1430  -30.5390 C.3   235  ASP235      0.1436
    179  CG       -26.5380   10.6720  -30.6730 C.2   235  ASP235      0.3671
    180  OD1      -26.7160   11.6160  -31.4590 O.co2 235  ASP235     -0.2456
    181  OD2      -27.4680   10.1450  -30.0260 O.co2 235  ASP235     -0.2456
    182  N        -22.2680    5.7990  -32.4350 N.3   237  PHE237     -0.1241
    183  CA       -22.0500    5.1530  -33.7240 C.3   237  PHE237      0.1605
    184  C        -21.4920    6.0980  -34.7700 C.2   237  PHE237      0.2264
    185  O        -20.3850    5.9200  -35.2850 O.2   237  PHE237     -0.2867
    186  CB       -23.3800    4.6440  -34.2150 C.3   237  PHE237      0.0534
    187  CG       -23.2910    3.8210  -35.4370 C.ar  237  PHE237     -0.0203
    188  CD1      -22.7740    2.5330  -35.3760 C.ar  237  PHE237     -0.0042
    189  CD2      -23.7650    4.3130  -36.6520 C.ar  237  PHE237     -0.0042
    190  CE1      -22.7280    1.7320  -36.5050 C.ar  237  PHE237     -0.0003
    191  CE2      -23.7280    3.5270  -37.7930 C.ar  237  PHE237     -0.0003
    192  CZ       -23.2060    2.2270  -37.7140 C.ar  237  PHE237     -0.0000
    193  N        -19.3540   -1.1070  -35.2660 N.3   260  VAL260     -0.1245
    194  CA       -20.3220   -1.9800  -34.6400 C.3   260  VAL260      0.1561
    195  C        -19.6990   -2.8550  -33.5520 C.2   260  VAL260      0.2260
    196  O        -20.3470   -3.1680  -32.5510 O.2   260  VAL260     -0.2867
    197  CB       -21.0170   -2.8310  -35.7010 C.3   260  VAL260      0.0252
    198  CG1      -22.2240   -3.5380  -35.1040 C.3   260  VAL260      0.0019
    199  CG2      -21.4460   -1.9350  -36.8410 C.3   260  VAL260      0.0019
    200  N        -19.2910   -0.8410  -30.6140 N.3   263  MET263     -0.1230
    201  CA       -20.6560   -0.7350  -30.1720 C.3   263  MET263      0.1702
    202  C        -21.0120   -1.9120  -29.2620 C.2   263  MET263      0.2592
    203  O        -21.4570   -1.7270  -28.1310 O.2   263  MET263     -0.2718
    204  CB       -21.5550   -0.7170  -31.4030 C.3   263  MET263      0.0401
    205  CG       -22.6130    0.3600  -31.3960 C.3   263  MET263      0.0596
    206  SD       -21.9120    1.9760  -31.1000 S.3   263  MET263     -0.1393
    207  CE       -23.2450    2.6930  -30.2310 C.3   263  MET263      0.0692
    208  N        -20.8070   -3.1280  -29.7590 N.am  264  HIS264     -0.1976
    209  CA       -21.1370   -4.3330  -28.9940 C.3   264  HIS264      0.1656
    210  C        -20.5050   -4.3330  -27.6110 C.2   264  HIS264      0.2291
    211  O        -21.1780   -4.5320  -26.5990 O.2   264  HIS264     -0.2864
    212  CB       -20.6890   -5.5720  -29.7700 C.3   264  HIS264      0.0771
    213  CG       -20.8920   -6.8630  -29.0360 C.ar  264  HIS264      0.0820
    214  ND1      -19.8740   -7.5050  -28.3650 N.ar  264  HIS264     -0.2267
    215  CD2      -21.9860   -7.6490  -28.8990 C.ar  264  HIS264      0.1154
    216  CE1      -20.3290   -8.6330  -27.8510 C.ar  264  HIS264      0.1986
    217  NE2      -21.6070   -8.7440  -28.1610 N.ar  264  HIS264     -0.2212
    218  N        -21.7960   -1.6390  -25.2970 N.3   267  LEU267     -0.1245
    219  CA       -23.1260   -2.0810  -24.9250 C.3   267  LEU267      0.1561
    220  C        -23.1290   -3.2500  -23.9780 C.2   267  LEU267      0.2260
    221  O        -23.8160   -3.2210  -22.9650 O.2   267  LEU267     -0.2867
    222  CB       -23.9290   -2.3990  -26.1790 C.3   267  LEU267      0.0270
    223  CG       -24.4640   -1.1120  -26.8080 C.3   267  LEU267      0.0019
    224  CD1      -25.0560   -1.4030  -28.1450 C.3   267  LEU267      0.0001
    225  CD2      -25.5210   -0.5020  -25.8900 C.3   267  LEU267      0.0001
@<TRIPOS>BOND
     1    63    62    2
     2    93    92    2
     3    92    91    1
     4    45    46    1
     5    62    61    1
     6    46    47    1
     7    46    49    1
     8    91    90    1
     9    91    94    1
    10    55    54    2
    11    47    48    2
    12    51    49    1
    13    61    64    1
    14    61    60    1
    15    69    70    1
    16    49    50    1
    17    54    53    1
    18    64    65    1
    19     1     2    1
    20    52    53    1
    21    79    78    2
    22     2     3    1
    23     2     5    1
    24     3     4    2
    25    53    56    1
    26    70    71    1
    27    70    73    1
    28    78    77    1
    29    76    77    1
    30    76    71   am
    31   191   192   ar
    32   191   189   ar
    33   192   190   ar
    34    65    66    1
    35    77    80    1
    36    71    72    2
    37    75    73    1
    38    67    66   ar
    39    56    57    1
    40    73    74    1
    41   199   197    1
    42    66    68   ar
    43     5     6    1
    44     9    10    1
    45     8     6   ar
    46   189   187   ar
    47   190   188   ar
    48    85    84    2
    49    84    83    1
    50     6     7   ar
    51    31    30    2
    52    80    81    1
    53    57    59   am
    54    57    58    2
    55    30    29    1
    56    30    32   am
    57   197   198    1
    58   197   194    1
    59    29    28    1
    60    95    96    1
    61    10    11    1
    62    10    13    1
    63   187   188   ar
    64   187   186    1
    65    11    12    2
    66   100   101    1
    67   100    99    1
    68   102   101    1
    69   185   184    2
    70    28    25    1
    71   193   194    1
    72    83    82    1
    73    83    86    1
    74   184   183    1
    75   194   195    1
    76    96    99    1
    77    96    97    1
    78    13    15    1
    79    13    14    1
    80   186   183    1
    81    86    87    1
    82    25    24    1
    83    25    26    1
    84   183   182    1
    85    89    87    1
    86   195   196    2
    87    98    97    2
    88    24    18   am
    89   173   172    2
    90    27    26    2
    91    97   103   am
    92    87    88    1
    93    19    18    2
    94    18    17    1
    95    16    17    1
    96   172   171    1
    97   172   174   am
    98   171   170    1
    99    17    20    1
   100   177   176    2
   101   103   104    1
   102    33    34    1
   103   174   175    1
   104   175   176    1
   105   175   178    1
   106   180   179   ar
   107   204   205    1
   108   204   201    1
   109   205   206    1
   110   121   120    1
   111    44    43    1
   112    41    43   ar
   113    41    39   ar
   114   170   165   am
   115   120   119    1
   116   206   207    1
   117   104   105    1
   118   104   107    1
   119   166   165    2
   120    20    21    1
   121    43    42   ar
   122    39    38   ar
   123   179   178    1
   124   179   181   ar
   125    22    21   ar
   126    35    34    1
   127    35    36    2
   128   200   201    1
   129    34    37    1
   130   165   164    1
   131    42    40   ar
   132   113   105   am
   133   113   114    1
   134    21    23   ar
   135   109   108   ar
   136   109   111   ar
   137   105   106    2
   138    38    40   ar
   139    38    37    1
   140   107   108    1
   141   201   202    1
   142   117   114    1
   143   117   118    1
   144   212   213    1
   145   212   209    1
   146   208   202   am
   147   208   209    1
   148   119   118    1
   149   114   115    1
   150   108   110   ar
   151   168   167    1
   152   111   112   ar
   153   167   164    1
   154   167   169    1
   155   202   203    2
   156   164   163    1
   157   213   215   ar
   158   213   214   ar
   159   209   210    1
   160   215   217   ar
   161   162   161    2
   162   214   216   ar
   163   163   161   am
   164   110   112   ar
   165   161   160    1
   166   217   216   ar
   167   224   223    1
   168   115   116    2
   169   115   122   am
   170   210   211    2
   171   122   123    1
   172   160   159    1
   173   159   154   am
   174   223   222    1
   175   223   225    1
   176   144   143    2
   177   222   219    1
   178   125   124    2
   179   123   124    1
   180   123   126    1
   181   154   153    1
   182   154   155    2
   183   157   156    1
   184   153   152    1
   185   153   156    1
   186   128   126    1
   187   132   131    2
   188   139   138    1
   189   143   152   am
   190   143   142    1
   191   147   149   ar
   192   147   146   ar
   193   126   127    1
   194   140   138    1
   195   218   219    1
   196   145   142    1
   197   145   146    1
   198   141   142    1
   199   141   136   am
   200   156   158    1
   201   149   151   ar
   202   135   138    1
   203   135   136    1
   204   135   134    1
   205   219   220    1
   206   146   148   ar
   207   131   134   am
   208   131   130    1
   209   136   137    2
   210   129   130    1
   211   220   221    2
   212   151   150   ar
   213   148   150   ar
   214   130   133    1
