@<TRIPOS>MOLECULE
tmp/1rg2D00.pdb
 171 165 0 0 0
SMALL
GASTEIGER

@<TRIPOS>ATOM
      1  N          1.7650   43.0810   60.5870 N.3    46  TYR46      -0.1241
      2  CA         1.5830   41.7710   61.1790 C.3    46  TYR46       0.1605
      3  C          1.1690   41.9230   62.6510 C.2    46  TYR46       0.2264
      4  O          0.1420   41.3960   63.0520 O.2    46  TYR46      -0.2867
      5  CB         2.8810   40.9690   61.0580 C.3    46  TYR46       0.0534
      6  CG         2.8480   39.6380   61.7760 C.ar   46  TYR46      -0.0201
      7  CD1        1.7320   38.8000   61.6810 C.ar   46  TYR46      -0.0009
      8  CD2        3.9360   39.2120   62.5330 C.ar   46  TYR46      -0.0009
      9  CE1        1.6880   37.5900   62.3360 C.ar   46  TYR46       0.0417
     10  CE2        3.9150   38.0020   63.1820 C.ar   46  TYR46       0.0417
     11  CZ         2.7870   37.1940   63.0800 C.ar   46  TYR46       0.1957
     12  OH         2.7600   35.9980   63.7320 O.3    46  TYR46      -0.2866
     13  N         -0.4890   28.1130   58.2100 N.3   101  PHE101     -0.1227
     14  CA         0.8320   28.6600   58.5430 C.3   101  PHE101      0.1736
     15  C          1.2500   29.8770   57.7120 C.2   101  PHE101      0.2596
     16  O          2.4130   30.2840   57.7330 O.2   101  PHE101     -0.2718
     17  CB         1.9060   27.5660   58.5130 C.3   101  PHE101      0.0547
     18  CG         1.5700   26.3930   59.3850 C.ar  101  PHE101     -0.0202
     19  CD1        1.7170   26.4760   60.7680 C.ar  101  PHE101     -0.0042
     20  CD2        1.0610   25.2250   58.8320 C.ar  101  PHE101     -0.0042
     21  CE1        1.3770   25.3980   61.5830 C.ar  101  PHE101     -0.0003
     22  CE2        0.7240   24.1460   59.6360 C.ar  101  PHE101     -0.0003
     23  CZ         0.8820   24.2330   61.0130 C.ar  101  PHE101     -0.0000
     24  N          0.2910   30.4680   57.0070 N.am  102  GLY102     -0.1942
     25  CA         0.5210   31.7410   56.3540 C.3   102  GLY102      0.2014
     26  C          0.3630   32.8640   57.3570 C.2   102  GLY102      0.2639
     27  O         -0.3250   32.7130   58.3680 O.2   102  GLY102     -0.2714
     28  N          1.0480   33.9750   57.1170 N.am  103  THR103     -0.1950
     29  CA         0.8140   35.1820   57.9100 C.3   103  THR103      0.1897
     30  C          0.6120   36.3600   56.9930 C.2   103  THR103      0.2313
     31  O          1.0520   36.3540   55.8460 O.2   103  THR103     -0.2863
     32  CB         1.9780   35.4780   58.9030 C.3   103  THR103      0.1794
     33  OG1        3.1380   35.8790   58.1720 O.3   103  THR103     -0.2208
     34  CG2        2.4560   34.1970   59.6050 C.3   103  THR103      0.0378
     35  N          2.2230   39.2390   56.5920 N.3   105  HIS105     -0.1241
     36  CA         3.4850   39.7490   57.1210 C.3   105  HIS105      0.1621
     37  C          3.9300   41.1150   56.5440 C.2   105  HIS105      0.2264
     38  O          4.7380   41.8030   57.1460 O.2   105  HIS105     -0.2867
     39  CB         4.5880   38.7140   56.9330 C.3   105  HIS105      0.0745
     40  CG         5.8040   38.9700   57.7720 C.ar  105  HIS105      0.0817
     41  ND1        7.0330   39.2700   57.2260 N.ar  105  HIS105     -0.2268
     42  CD2        5.9840   38.9430   59.1160 C.ar  105  HIS105      0.1154
     43  CE1        7.9180   39.4290   58.1980 C.ar  105  HIS105      0.1986
     44  NE2        7.3090   39.2270   59.3530 N.ar  105  HIS105     -0.2212
     45  N          7.1500   46.0010   62.7120 N.3   125  ASN125     -0.1240
     46  CA         5.8140   45.8560   63.2670 C.3   125  ASN125      0.1653
     47  C          5.3600   47.1800   63.8870 C.2   125  ASN125      0.2266
     48  O          6.1940   48.0420   64.1830 O.2   125  ASN125     -0.2867
     49  CB         5.7880   44.7190   64.2960 C.3   125  ASN125      0.1155
     50  CG         5.8940   43.3630   63.6330 C.2   125  ASN125      0.2627
     51  OD1        4.9050   42.8350   63.1470 O.2   125  ASN125     -0.2716
     52  ND2        7.1020   42.8310   63.5500 N.am  125  ASN125     -0.0877
     53  N         14.0520   35.5970   60.6780 N.3   242  SER242     -0.1202
     54  CA        13.2570   34.4100   60.9440 C.3   242  SER242      0.2020
     55  C         13.5970   33.3150   59.9310 C.2   242  SER242      0.2619
     56  O         13.9320   33.5990   58.7820 O.2   242  SER242     -0.2717
     57  CB        11.7560   34.7510   60.9710 C.3   242  SER242      0.2103
     58  OG        10.9390   33.5930   60.9700 O.3   242  SER242     -0.2182
     59  N         13.5560   32.0630   60.3720 N.am  243  VAL243     -0.1965
     60  CA        14.0000   30.9530   59.5300 C.3   243  VAL243      0.1727
     61  C         12.9260   29.8680   59.4570 C.2   243  VAL243      0.2617
     62  O         12.4860   29.3400   60.4790 O.2   243  VAL243     -0.2715
     63  CB        15.3360   30.3460   60.0200 C.3   243  VAL243      0.0290
     64  CG1       15.8690   29.3600   59.0050 C.3   243  VAL243      0.0023
     65  CG2       16.3780   31.4360   60.2550 C.3   243  VAL243      0.0023
     66  N         12.4880   29.5690   58.2420 N.am  244  GLY244     -0.1940
     67  CA        11.4990   28.5340   58.0280 C.3   244  GLY244      0.2014
     68  C         12.2140   27.1940   58.0520 C.2   244  GLY244      0.2639
     69  O         13.4430   27.1430   58.1400 O.2   244  GLY244     -0.2714
     70  N         11.4430   26.1160   57.9820 N.am  245  SER245     -0.1949
     71  CA        12.0100   24.7880   57.8010 C.3   245  SER245      0.1924
     72  C         12.2260   24.5390   56.3010 C.2   245  SER245      0.2314
     73  O         11.2840   24.5280   55.5190 O.2   245  SER245     -0.2863
     74  CB        11.1160   23.7330   58.4830 C.3   245  SER245      0.2116
     75  OG        10.8170   22.6570   57.6210 O.3   245  SER245     -0.2180
     76  N         12.4640   34.5990   66.0020 N.3   294  PRO294     -0.2116
     77  CA        11.7640   33.3810   66.4560 C.3   294  PRO294      0.1372
     78  C         12.1920   32.0520   65.8100 C.2   294  PRO294      0.2244
     79  O         11.3190   31.2540   65.4910 O.2   294  PRO294     -0.2868
     80  CB        10.3070   33.6800   66.0960 C.3   294  PRO294      0.0268
     81  CG        10.4400   34.5030   64.8370 C.3   294  PRO294      0.0207
     82  CD        11.6180   35.4190   65.1140 C.3   294  PRO294      0.0892
     83  N         13.0420   28.4440   66.0940 N.3   296  SER296     -0.1217
     84  CA        12.7290   27.5210   67.1840 C.3   296  SER296      0.1889
     85  C         13.5750   26.2660   67.0890 C.2   296  SER296      0.2288
     86  O         13.9990   25.8930   65.9970 O.2   296  SER296     -0.2866
     87  CB        11.2360   27.1840   67.1960 C.3   296  SER296      0.2089
     88  OG        10.8970   26.3070   66.1430 O.3   296  SER296     -0.2183
     89  N         15.8830   43.4120   62.4090 N.3   326  HIS326     -0.1241
     90  CA        14.5660   42.9090   62.1050 C.3   326  HIS326      0.1621
     91  C         14.2870   43.2650   60.6320 C.2   326  HIS326      0.2264
     92  O         13.3060   42.8280   60.0340 O.2   326  HIS326     -0.2867
     93  CB        13.5310   43.4680   63.0880 C.3   326  HIS326      0.0745
     94  CG        12.1660   42.8970   62.8940 C.ar  326  HIS326      0.0817
     95  ND1       11.2460   43.4550   62.0250 N.ar  326  HIS326     -0.2268
     96  CD2       11.5810   41.7870   63.4060 C.ar  326  HIS326      0.1154
     97  CE1       10.1430   42.7230   62.0310 C.ar  326  HIS326      0.1986
     98  NE2       10.3210   41.7070   62.8630 N.ar  326  HIS326     -0.2212
     99  N         11.1680   36.9320   55.2100 N.3   349  ASN349     -0.1240
    100  CA        12.2520   36.2250   55.8740 C.3   349  ASN349      0.1653
    101  C         12.6860   35.0080   55.0630 C.2   349  ASN349      0.2266
    102  O         12.1960   34.7920   53.9540 O.2   349  ASN349     -0.2867
    103  CB        11.8520   35.7990   57.2920 C.3   349  ASN349      0.1155
    104  CG        11.7000   36.9740   58.2300 C.2   349  ASN349      0.2627
    105  OD1       12.6790   37.6180   58.5990 O.2   349  ASN349     -0.2716
    106  ND2       10.4720   37.2560   58.6300 N.am  349  ASN349     -0.0877
    107  N         12.0410   31.8510   54.4870 N.3   351  SER351     -0.1202
    108  CA        11.0870   30.7660   54.6490 C.3   351  SER351      0.2020
    109  C         10.4080   30.4720   53.3140 C.2   351  SER351      0.2619
    110  O         10.2680   31.3500   52.4650 O.2   351  SER351     -0.2717
    111  CB        10.0400   31.1160   55.7040 C.3   351  SER351      0.2103
    112  OG         9.1490   32.0980   55.2010 O.3   351  SER351     -0.2182
    113  N          9.9920   29.2240   53.1300 N.am  352  LYS352     -0.1965
    114  CA         9.2110   28.8640   51.9620 C.3   352  LYS352      0.1728
    115  C          7.8630   29.5710   52.0210 C.2   352  LYS352      0.2616
    116  O          7.3150   29.9740   50.9990 O.2   352  LYS352     -0.2715
    117  CB         9.0210   27.3610   51.9140 C.3   352  LYS352      0.0311
    118  CG        10.3030   26.6020   51.6060 C.3   352  LYS352      0.0038
    119  CD        10.2980   25.2360   52.2360 C.3   352  LYS352      0.0206
    120  CE        10.1850   24.1350   51.1990 C.3   352  LYS352      0.1093
    121  NZ        10.1180   22.8150   51.8860 N.3   352  LYS352     -0.1314
    122  N          7.3430   29.7220   53.2350 N.am  353  ALA353     -0.1963
    123  CA         6.0740   30.3970   53.4680 C.3   353  ALA353      0.1728
    124  C          6.0130   31.7770   52.7980 C.2   353  ALA353      0.2616
    125  O          5.0080   32.1250   52.1660 O.2   353  ALA353     -0.2715
    126  CB         5.8230   30.5130   54.9790 C.3   353  ALA353      0.0334
    127  N          7.1020   32.5410   52.9400 N.am  354  ALA354     -0.1977
    128  CA         7.2250   33.8960   52.4170 C.3   354  ALA354      0.1597
    129  C          7.6400   33.9440   50.9530 C.2   354  ALA354      0.2287
    130  O          7.1510   34.7810   50.1810 O.2   354  ALA354     -0.2864
    131  CB         8.2460   34.7150   53.2680 C.3   354  ALA354      0.0319
    132  N          2.3910   30.7830   51.1700 N.3   368  ARG368     -0.1231
    133  CA         1.4920   30.8720   52.3180 C.3   368  ARG368      0.1694
    134  C          1.1460   32.2890   52.7720 C.2   368  ARG368      0.2592
    135  O          0.0880   32.5150   53.3640 O.2   368  ARG368     -0.2718
    136  CB         2.0850   30.1090   53.5050 C.3   368  ARG368      0.0321
    137  CG         2.3600   28.6210   53.2310 C.3   368  ARG368      0.0489
    138  CD         2.9980   27.8940   54.4060 C.3   368  ARG368      0.2205
    139  NE         3.4980   26.5800   54.0160 N.pl3 368  ARG368     -0.0865
    140  CZ         2.7630   25.4690   54.0410 C.cat 368  ARG368      0.5346
    141  NH1        1.5010   25.5280   54.4410 N.pl3 368  ARG368      0.1354
    142  NH2        3.2870   24.3090   53.6690 N.pl3 368  ARG368      0.1354
    143  N          2.0350   33.2470   52.5150 N.am  369  SER369     -0.1952
    144  CA         1.9440   34.5290   53.2050 C.3   369  SER369      0.1924
    145  C          1.8320   35.7540   52.3140 C.2   369  SER369      0.2314
    146  O          2.0790   35.6970   51.1170 O.2   369  SER369     -0.2863
    147  CB         3.1640   34.6940   54.1060 C.3   369  SER369      0.2116
    148  OG         3.1320   33.7240   55.1280 O.3   369  SER369     -0.2180
    149  N          3.7380   39.1140   51.6970 N.3   371  GLU371     -0.1245
    150  CA         5.0130   39.8080   51.9270 C.3   371  GLU371      0.1567
    151  C          5.1670   40.9590   50.9060 C.2   371  GLU371      0.2260
    152  O          4.4650   40.9930   49.8950 O.2   371  GLU371     -0.2867
    153  CB         6.2080   38.8380   51.7860 C.3   371  GLU371      0.0388
    154  CG         6.1140   37.5700   52.6280 C.3   371  GLU371      0.1160
    155  CD         6.5150   37.7720   54.0830 C.2   371  GLU371      0.3649
    156  OE1        6.4350   36.7920   54.8570 O.co2 371  GLU371     -0.2457
    157  OE2        6.9050   38.9000   54.4670 O.co2 371  GLU371     -0.2457
    158  N         15.1530   30.8010   69.8490 N.3   416  TRP416     -0.1241
    159  CA        14.4250   31.5660   70.8580 C.3   416  TRP416      0.1605
    160  C         13.8540   30.7980   72.0450 C.2   416  TRP416      0.2264
    161  O         13.6530   31.3840   73.1190 O.2   416  TRP416     -0.2867
    162  CB        13.3480   32.4500   70.2240 C.3   416  TRP416      0.0550
    163  CG        12.0830   31.7540   69.8250 C.ar  416  TRP416      0.0003
    164  CD1       11.9300   30.4400   69.4790 C.ar  416  TRP416      0.0946
    165  CD2       10.7830   32.3540   69.6940 C.ar  416  TRP416      0.0152
    166  NE1       10.6180   30.1820   69.1560 N.ar  416  TRP416     -0.2442
    167  CE2        9.8910   31.3390   69.2770 C.ar  416  TRP416      0.0810
    168  CE3       10.2750   33.6560   69.8910 C.ar  416  TRP416      0.0012
    169  CZ2        8.5260   31.5830   69.0610 C.ar  416  TRP416      0.0191
    170  CZ3        8.9170   33.8940   69.6770 C.ar  416  TRP416      0.0001
    171  CH2        8.0650   32.8660   69.2650 C.ar  416  TRP416      0.0015
@<TRIPOS>BOND
     1   152   151    2
     2   130   129    2
     3   151   150    1
     4   129   128    1
     5   116   115    2
     6   146   145    2
     7   132   133    1
     8   120   121    1
     9   120   119    1
    10   118   117    1
    11   118   119    1
    12   149   150    1
    13   153   150    1
    14   153   154    1
    15   117   114    1
    16   114   115    1
    17   114   113    1
    18   115   122   am
    19   125   124    2
    20   145   144    1
    21   133   134    1
    22   133   136    1
    23   128   127    1
    24   128   131    1
    25   110   109    2
    26   143   134   am
    27   143   144    1
    28   154   155    1
    29   134   135    2
    30   124   127   am
    31   124   123    1
    32   113   109   am
    33   144   147    1
    34   137   136    1
    35   137   138    1
    36   122   123    1
    37   109   108    1
    38   123   126    1
    39   142   140    1
    40   102   101    2
    41   139   140    2
    42   139   138    1
    43   140   141    1
    44   155   157   ar
    45   155   156   ar
    46   147   148    1
    47   107   108    1
    48   108   111    1
    49   101   100    1
    50   112   111    1
    51    99   100    1
    52    73    72    2
    53    31    30    2
    54   100   103    1
    55    72    71    1
    56    25    24    1
    57    25    26    1
    58    37    36    1
    59    37    38    2
    60    35    36    1
    61    39    36    1
    62    39    40    1
    63    30    29    1
    64    24    15   am
    65    28    26   am
    66    28    29    1
    67    41    40   ar
    68    41    43   ar
    69   103   104    1
    70    26    27    2
    71    75    74    1
    72    15    16    2
    73    15    14    1
    74    40    42   ar
    75    71    70    1
    76    71    74    1
    77    29    32    1
    78    70    68   am
    79    67    68    1
    80    67    66    1
    81    68    69    2
    82    33    32    1
    83    43    44   ar
    84    13    14    1
    85   104   105    2
    86   104   106   am
    87    66    61   am
    88    17    14    1
    89    17    18    1
    90    56    55    2
    91    20    18   ar
    92    20    22   ar
    93    32    34    1
    94    64    63    1
    95    42    44   ar
    96    18    19   ar
    97    61    60    1
    98    61    62    2
    99    60    63    1
   100    60    59    1
   101    22    23   ar
   102    55    59   am
   103    55    54    1
   104    63    65    1
   105    92    91    2
   106     1     2    1
   107    91    90    1
   108    53    54    1
   109    19    21   ar
   110    54    57    1
   111    58    57    1
   112    23    21   ar
   113     5     2    1
   114     5     6    1
   115     2     3    1
   116     7     6   ar
   117     7     9   ar
   118     6     8   ar
   119    95    97   ar
   120    95    94   ar
   121    97    98   ar
   122    90    89    1
   123    90    93    1
   124     9    11   ar
   125     8    10   ar
   126     3     4    2
   127    45    46    1
   128    98    96   ar
   129    94    93    1
   130    94    96   ar
   131    11    10   ar
   132    11    12    1
   133    51    50    2
   134    46    47    1
   135    46    49    1
   136    52    50   am
   137    50    49    1
   138    47    48    2
   139    81    82    1
   140    81    80    1
   141    82    76    1
   142    79    78    2
   143    78    77    1
   144    86    85    2
   145    76    77    1
   146    83    84    1
   147    80    77    1
   148    88    87    1
   149    85    84    1
   150    84    87    1
   151   169   171   ar
   152   169   167   ar
   153   166   167   ar
   154   166   164   ar
   155   171   170   ar
   156   167   165   ar
   157   164   163   ar
   158   170   168   ar
   159   165   163   ar
   160   165   168   ar
   161   163   162    1
   162   158   159    1
   163   162   159    1
   164   159   160    1
   165   160   161    2
