@<TRIPOS>MOLECULE
tmp/1rg2D02.pdb
 114 109 0 0 0
SMALL
GASTEIGER

@<TRIPOS>ATOM
      1  N          1.7650   43.0810   60.5870 N.3    46  TYR46      -0.1227
      2  CA         1.5830   41.7710   61.1790 C.3    46  TYR46       0.1736
      3  C          1.1690   41.9230   62.6510 C.2    46  TYR46       0.2595
      4  O          0.1420   41.3960   63.0520 O.2    46  TYR46      -0.2718
      5  CB         2.8810   40.9690   61.0580 C.3    46  TYR46       0.0548
      6  CG         2.8480   39.6380   61.7760 C.ar   46  TYR46      -0.0200
      7  CD1        1.7320   38.8000   61.6810 C.ar   46  TYR46      -0.0009
      8  CD2        3.9360   39.2120   62.5330 C.ar   46  TYR46      -0.0009
      9  CE1        1.6880   37.5900   62.3360 C.ar   46  TYR46       0.0417
     10  CE2        3.9150   38.0020   63.1820 C.ar   46  TYR46       0.0417
     11  CZ         2.7870   37.1940   63.0800 C.ar   46  TYR46       0.1957
     12  OH         2.7600   35.9980   63.7320 O.3    46  TYR46      -0.2866
     13  N          1.9730   42.6410   63.4390 N.am   47  CYS47      -0.1970
     14  CA         1.6610   42.9310   64.8420 C.3    47  CYS47       0.1712
     15  C          1.3860   44.4130   65.0700 C.2    47  CYS47       0.2296
     16  O          2.0650   45.2830   64.4890 O.2    47  CYS47      -0.2864
     17  CB         2.8280   42.5110   65.7440 C.3    47  CYS47       0.0983
     18  SG         3.1310   40.7360   65.7460 S.3    47  CYS47      -0.0798
     19  N          2.2230   39.2390   56.5920 N.3   105  HIS105     -0.1241
     20  CA         3.4850   39.7490   57.1210 C.3   105  HIS105      0.1621
     21  C          3.9300   41.1150   56.5440 C.2   105  HIS105      0.2264
     22  O          4.7380   41.8030   57.1460 O.2   105  HIS105     -0.2867
     23  CB         4.5880   38.7140   56.9330 C.3   105  HIS105      0.0745
     24  CG         5.8040   38.9700   57.7720 C.ar  105  HIS105      0.0817
     25  ND1        7.0330   39.2700   57.2260 N.ar  105  HIS105     -0.2268
     26  CD2        5.9840   38.9430   59.1160 C.ar  105  HIS105      0.1154
     27  CE1        7.9180   39.4290   58.1980 C.ar  105  HIS105      0.1986
     28  NE2        7.3090   39.2270   59.3530 N.ar  105  HIS105     -0.2212
     29  N          7.1500   46.0010   62.7120 N.3   125  ASN125     -0.1240
     30  CA         5.8140   45.8560   63.2670 C.3   125  ASN125      0.1653
     31  C          5.3600   47.1800   63.8870 C.2   125  ASN125      0.2266
     32  O          6.1940   48.0420   64.1830 O.2   125  ASN125     -0.2867
     33  CB         5.7880   44.7190   64.2960 C.3   125  ASN125      0.1155
     34  CG         5.8940   43.3630   63.6330 C.2   125  ASN125      0.2627
     35  OD1        4.9050   42.8350   63.1470 O.2   125  ASN125     -0.2716
     36  ND2        7.1020   42.8310   63.5500 N.am  125  ASN125     -0.0877
     37  N          4.6890   48.1110   66.7880 N.3   127  ILE127     -0.1245
     38  CA         4.8270   48.0530   68.2420 C.3   127  ILE127      0.1561
     39  C          6.0710   48.8250   68.6190 C.2   127  ILE127      0.2260
     40  O          7.0050   48.9290   67.8100 O.2   127  ILE127     -0.2867
     41  CB         4.9450   46.5890   68.7720 C.3   127  ILE127      0.0252
     42  CG1        6.2070   45.9090   68.2320 C.3   127  ILE127      0.0019
     43  CG2        3.7090   45.7890   68.4300 C.3   127  ILE127      0.0019
     44  CD1        6.2690   44.3950   68.5100 C.3   127  ILE127      0.0001
     45  N         15.4400   37.7060   59.8380 N.3   241  SER241     -0.1202
     46  CA        15.3150   37.5760   61.2900 C.3   241  SER241      0.2020
     47  C         14.4670   36.3750   61.6710 C.2   241  SER241      0.2619
     48  O         14.1770   36.1680   62.8410 O.2   241  SER241     -0.2717
     49  CB        14.7380   38.8620   61.9080 C.3   241  SER241      0.2103
     50  OG        13.4920   39.2250   61.3260 O.3   241  SER241     -0.2182
     51  N         14.0520   35.5970   60.6780 N.am  242  SER242     -0.1951
     52  CA        13.2570   34.4100   60.9440 C.3   242  SER242      0.1924
     53  C         13.5970   33.3150   59.9310 C.2   242  SER242      0.2314
     54  O         13.9320   33.5990   58.7820 O.2   242  SER242     -0.2863
     55  CB        11.7560   34.7510   60.9710 C.3   242  SER242      0.2116
     56  OG        10.9390   33.5930   60.9700 O.3   242  SER242     -0.2180
     57  N         13.2160   37.7740   71.3110 N.3   291  GLY291     -0.1210
     58  CA        11.7810   37.6030   71.1280 C.3   291  GLY291      0.1956
     59  C         11.3200   37.9190   69.6980 C.2   291  GLY291      0.2612
     60  O         10.2080   37.5750   69.3090 O.2   291  GLY291     -0.2717
     61  N         12.1730   38.5720   68.9160 N.am  292  SER292     -0.1952
     62  CA        11.8360   38.9580   67.5390 C.3   292  SER292      0.1924
     63  C         12.7140   38.2480   66.5480 C.2   292  SER292      0.2314
     64  O         12.8060   38.6460   65.3870 O.2   292  SER292     -0.2863
     65  CB        12.0110   40.4560   67.3400 C.3   292  SER292      0.2116
     66  OG        11.1040   41.1620   68.1610 O.3   292  SER292     -0.2180
     67  N         12.4640   34.5990   66.0020 N.3   294  PRO294     -0.2116
     68  CA        11.7640   33.3810   66.4560 C.3   294  PRO294      0.1372
     69  C         12.1920   32.0520   65.8100 C.2   294  PRO294      0.2244
     70  O         11.3190   31.2540   65.4910 O.2   294  PRO294     -0.2868
     71  CB        10.3070   33.6800   66.0960 C.3   294  PRO294      0.0268
     72  CG        10.4400   34.5030   64.8370 C.3   294  PRO294      0.0207
     73  CD        11.6180   35.4190   65.1140 C.3   294  PRO294      0.0892
     74  N         15.8830   43.4120   62.4090 N.3   326  HIS326     -0.1241
     75  CA        14.5660   42.9090   62.1050 C.3   326  HIS326      0.1621
     76  C         14.2870   43.2650   60.6320 C.2   326  HIS326      0.2264
     77  O         13.3060   42.8280   60.0340 O.2   326  HIS326     -0.2867
     78  CB        13.5310   43.4680   63.0880 C.3   326  HIS326      0.0745
     79  CG        12.1660   42.8970   62.8940 C.ar  326  HIS326      0.0817
     80  ND1       11.2460   43.4550   62.0250 N.ar  326  HIS326     -0.2268
     81  CD2       11.5810   41.7870   63.4060 C.ar  326  HIS326      0.1154
     82  CE1       10.1430   42.7230   62.0310 C.ar  326  HIS326      0.1986
     83  NE2       10.3210   41.7070   62.8630 N.ar  326  HIS326     -0.2212
     84  N         15.0130   42.8940   56.5990 N.3   328  LYS328     -0.1245
     85  CA        15.4120   41.7520   55.7600 C.3   328  LYS328      0.1561
     86  C         15.8870   42.2810   54.4240 C.2   328  LYS328      0.2260
     87  O         15.2080   43.1300   53.8180 O.2   328  LYS328     -0.2867
     88  CB        14.2350   40.7790   55.5110 C.3   328  LYS328      0.0271
     89  CG        13.5130   40.3390   56.7920 C.3   328  LYS328      0.0035
     90  CD        12.3420   41.2630   57.1290 C.3   328  LYS328      0.0206
     91  CE        11.4260   40.6790   58.2220 C.3   328  LYS328      0.1093
     92  NZ        12.1050   40.5330   59.5450 N.3   328  LYS328     -0.1314
     93  N         11.1680   36.9320   55.2100 N.3   349  ASN349     -0.1240
     94  CA        12.2520   36.2250   55.8740 C.3   349  ASN349      0.1653
     95  C         12.6860   35.0080   55.0630 C.2   349  ASN349      0.2266
     96  O         12.1960   34.7920   53.9540 O.2   349  ASN349     -0.2867
     97  CB        11.8520   35.7990   57.2920 C.3   349  ASN349      0.1155
     98  CG        11.7000   36.9740   58.2300 C.2   349  ASN349      0.2627
     99  OD1       12.6790   37.6180   58.5990 O.2   349  ASN349     -0.2716
    100  ND2       10.4720   37.2560   58.6300 N.am  349  ASN349     -0.0877
    101  N         15.1530   30.8010   69.8490 N.3   416  TRP416     -0.1241
    102  CA        14.4250   31.5660   70.8580 C.3   416  TRP416      0.1605
    103  C         13.8540   30.7980   72.0450 C.2   416  TRP416      0.2264
    104  O         13.6530   31.3840   73.1190 O.2   416  TRP416     -0.2867
    105  CB        13.3480   32.4500   70.2240 C.3   416  TRP416      0.0550
    106  CG        12.0830   31.7540   69.8250 C.ar  416  TRP416      0.0003
    107  CD1       11.9300   30.4400   69.4790 C.ar  416  TRP416      0.0946
    108  CD2       10.7830   32.3540   69.6940 C.ar  416  TRP416      0.0152
    109  NE1       10.6180   30.1820   69.1560 N.ar  416  TRP416     -0.2442
    110  CE2        9.8910   31.3390   69.2770 C.ar  416  TRP416      0.0810
    111  CE3       10.2750   33.6560   69.8910 C.ar  416  TRP416      0.0012
    112  CZ2        8.5260   31.5830   69.0610 C.ar  416  TRP416      0.0191
    113  CZ3        8.9170   33.8940   69.6770 C.ar  416  TRP416      0.0001
    114  CH2        8.0650   32.8660   69.2650 C.ar  416  TRP416      0.0015
@<TRIPOS>BOND
     1    87    86    2
     2    96    95    2
     3    86    85    1
     4    95    94    1
     5    93    94    1
     6    88    85    1
     7    88    89    1
     8    85    84    1
     9    94    97    1
    10    21    20    1
    11    21    22    2
    12    19    20    1
    13    89    90    1
    14    23    20    1
    15    23    24    1
    16    90    91    1
    17    25    24   ar
    18    25    27   ar
    19    97    98    1
    20    24    26   ar
    21    27    28   ar
    22    91    92    1
    23    98    99    2
    24    98   100   am
    25    54    53    2
    26    26    28   ar
    27    45    46    1
    28    53    52    1
    29    77    76    2
    30     1     2    1
    31    76    75    1
    32    51    52    1
    33    51    47   am
    34    52    55    1
    35    56    55    1
    36     5     2    1
    37     5     6    1
    38     2     3    1
    39    46    47    1
    40    46    49    1
    41    50    49    1
    42    47    48    2
    43     7     6   ar
    44     7     9   ar
    45     6     8   ar
    46    80    82   ar
    47    80    79   ar
    48    82    83   ar
    49    75    74    1
    50    75    78    1
    51     9    11   ar
    52     8    10   ar
    53     3     4    2
    54     3    13   am
    55    29    30    1
    56    83    81   ar
    57    79    78    1
    58    79    81   ar
    59    11    10   ar
    60    11    12    1
    61    35    34    2
    62    30    31    1
    63    30    33    1
    64    13    14    1
    65    36    34   am
    66    34    33    1
    67    31    32    2
    68    16    15    2
    69    72    73    1
    70    72    71    1
    71    14    15    1
    72    14    17    1
    73    73    67    1
    74    64    63    2
    75    70    69    2
    76    17    18    1
    77    69    68    1
    78    67    68    1
    79    71    68    1
    80    63    62    1
    81    37    38    1
    82    65    62    1
    83    65    66    1
    84    62    61    1
    85    40    39    2
    86    42    44    1
    87    42    41    1
    88    38    39    1
    89    38    41    1
    90    43    41    1
    91    61    59   am
    92   112   114   ar
    93   112   110   ar
    94   109   110   ar
    95   109   107   ar
    96   114   113   ar
    97   110   108   ar
    98    60    59    2
    99   107   106   ar
   100   113   111   ar
   101   108   106   ar
   102   108   111   ar
   103    59    58    1
   104   106   105    1
   105   101   102    1
   106   105   102    1
   107   102   103    1
   108    58    57    1
   109   103   104    2
