@<TRIPOS>MOLECULE
tmp/1rg5A03.pdb
 131 130 0 0 0
SMALL
GASTEIGER

@<TRIPOS>ATOM
      1  N          9.7000   75.7300   41.3310 N.3    46  ILE46      -0.1245
      2  CA        10.9640   75.5440   42.0680 C.3    46  ILE46       0.1561
      3  C         11.3170   74.0360   42.2980 C.2    46  ILE46       0.2260
      4  O         12.4660   73.6030   42.1200 O.2    46  ILE46      -0.2867
      5  CB        10.9420   76.4020   43.3820 C.3    46  ILE46       0.0252
      6  CG1       11.2420   77.8460   43.0450 C.3    46  ILE46       0.0019
      7  CG2       11.9890   75.9690   44.3710 C.3    46  ILE46       0.0019
      8  CD1       10.5600   78.8570   44.0210 C.3    46  ILE46       0.0001
      9  N         12.6860   72.6520   38.9690 N.3    49  ILE49      -0.1245
     10  CA        14.0680   73.0880   38.7530 C.3    49  ILE49       0.1561
     11  C         15.0470   72.2400   39.5730 C.2    49  ILE49       0.2260
     12  O         16.0780   71.7940   39.0430 O.2    49  ILE49      -0.2867
     13  CB        14.2470   74.5690   39.0530 C.3    49  ILE49       0.0252
     14  CG1       13.5440   75.4200   37.9810 C.3    49  ILE49       0.0019
     15  CG2       15.7380   74.9480   39.0860 C.3    49  ILE49       0.0019
     16  CD1       13.4030   76.8810   38.3740 C.3    49  ILE49       0.0001
     17  N          3.2890   84.8180   36.6610 N.3    97  PHE97      -0.1241
     18  CA         3.3740   86.2380   36.2890 C.3    97  PHE97       0.1605
     19  C          1.9830   86.8400   36.0840 C.2    97  PHE97       0.2264
     20  O          1.7290   87.9270   36.5580 O.2    97  PHE97      -0.2867
     21  CB         4.2300   86.4800   35.0210 C.3    97  PHE97       0.0534
     22  CG         5.6390   85.9370   35.0930 C.ar   97  PHE97      -0.0203
     23  CD1        6.3170   85.8120   36.3050 C.ar   97  PHE97      -0.0042
     24  CD2        6.3120   85.5860   33.9230 C.ar   97  PHE97      -0.0042
     25  CE1        7.6310   85.2730   36.3530 C.ar   97  PHE97      -0.0003
     26  CE2        7.6320   85.0870   33.9630 C.ar   97  PHE97      -0.0003
     27  CZ         8.2860   84.9250   35.1860 C.ar   97  PHE97      -0.0000
     28  N          8.7120   88.6570   27.6780 N.3   128  TYR128     -0.1241
     29  CA         8.9830   87.2480   28.0190 C.3   128  TYR128      0.1605
     30  C          8.2740   86.2980   27.0370 C.2   128  TYR128      0.2264
     31  O          8.9080   85.3920   26.4580 O.2   128  TYR128     -0.2867
     32  CB         8.5970   86.9630   29.4970 C.3   128  TYR128      0.0534
     33  CG         8.6580   85.5150   29.9190 C.ar  128  TYR128     -0.0201
     34  CD1        9.8860   84.8920   30.1850 C.ar  128  TYR128     -0.0009
     35  CD2        7.4960   84.7590   30.0400 C.ar  128  TYR128     -0.0009
     36  CE1        9.9490   83.5590   30.5520 C.ar  128  TYR128      0.0417
     37  CE2        7.5480   83.4240   30.3960 C.ar  128  TYR128      0.0417
     38  CZ         8.7750   82.8140   30.6520 C.ar  128  TYR128      0.1957
     39  OH         8.8300   81.4650   30.9930 O.3   128  TYR128     -0.2866
     40  N          9.8340   85.8930   23.4620 N.3   131  LEU131     -0.1245
     41  CA        10.9940   85.0200   23.4230 C.3   131  LEU131      0.1561
     42  C         10.6980   83.5170   23.5970 C.2   131  LEU131      0.2260
     43  O         11.3320   82.6730   22.9100 O.2   131  LEU131     -0.2867
     44  CB        12.0330   85.4770   24.4630 C.3   131  LEU131      0.0270
     45  CG        12.6100   86.8800   24.2400 C.3   131  LEU131      0.0019
     46  CD1       13.5190   87.3030   25.3860 C.3   131  LEU131      0.0001
     47  CD2       13.3840   86.9800   22.9460 C.3   131  LEU131      0.0001
     48  N         15.1120   80.4460   24.8340 N.3   146  PHE146     -0.1241
     49  CA        16.2960   80.5000   25.6840 C.3   146  PHE146      0.1605
     50  C         16.2240   79.5520   26.8760 C.2   146  PHE146      0.2264
     51  O         15.1380   79.2670   27.3800 O.2   146  PHE146     -0.2867
     52  CB        16.6230   81.9280   26.1190 C.3   146  PHE146      0.0534
     53  CG        15.6470   82.5580   27.0940 C.ar  146  PHE146     -0.0203
     54  CD1       14.5490   83.2500   26.6450 C.ar  146  PHE146     -0.0042
     55  CD2       15.9250   82.5760   28.4550 C.ar  146  PHE146     -0.0042
     56  CE1       13.6700   83.8830   27.5560 C.ar  146  PHE146     -0.0003
     57  CE2       15.0730   83.2050   29.3730 C.ar  146  PHE146     -0.0003
     58  CZ        13.9380   83.8530   28.9180 C.ar  146  PHE146     -0.0000
     59  N         17.0550   78.2030   30.8130 N.3   148  TYR148     -0.1241
     60  CA        17.0270   78.8140   32.1420 C.3   148  TYR148      0.1605
     61  C         18.2800   78.5060   32.9660 C.2   148  TYR148      0.2264
     62  O         18.3800   77.4690   33.5910 O.2   148  TYR148     -0.2867
     63  CB        15.7410   78.4270   32.8960 C.3   148  TYR148      0.0534
     64  CG        14.4340   78.7250   32.1660 C.ar  148  TYR148     -0.0201
     65  CD1       14.2730   79.8670   31.4010 C.ar  148  TYR148     -0.0009
     66  CD2       13.3530   77.8520   32.2560 C.ar  148  TYR148     -0.0009
     67  CE1       13.0790   80.1440   30.7450 C.ar  148  TYR148      0.0417
     68  CE2       12.1380   78.1190   31.6020 C.ar  148  TYR148      0.0417
     69  CZ        12.0040   79.2730   30.8510 C.ar  148  TYR148      0.1957
     70  OH        10.8060   79.5430   30.2070 O.3   148  TYR148     -0.2866
     71  N         22.0260   80.8880   34.7320 N.3   150  ILE150     -0.1231
     72  CA        22.5870   82.2350   34.9680 C.3   150  ILE150      0.1692
     73  C         23.5200   82.6030   33.8160 C.2   150  ILE150      0.2592
     74  O         23.3870   83.6730   33.2420 O.2   150  ILE150     -0.2718
     75  CB        23.3880   82.3370   36.3220 C.3   150  ILE150      0.0266
     76  CG1       22.5550   81.9410   37.5580 C.3   150  ILE150      0.0019
     77  CG2       23.9510   83.7350   36.5500 C.3   150  ILE150      0.0020
     78  CD1       21.5590   82.9030   37.9140 C.3   150  ILE150      0.0001
     79  N         24.4320   81.6980   33.4700 N.am  151  TRP151     -0.1976
     80  CA        25.4200   81.9370   32.3860 C.3   151  TRP151      0.1640
     81  C         24.9570   81.4140   31.0390 C.2   151  TRP151      0.2290
     82  O         25.2300   82.0440   30.0010 O.2   151  TRP151     -0.2864
     83  CB        26.8120   81.3680   32.7430 C.3   151  TRP151      0.0576
     84  CG        27.3500   82.1120   33.9210 C.ar  151  TRP151      0.0006
     85  CD1       27.3850   81.6920   35.2330 C.ar  151  TRP151      0.0946
     86  CD2       27.8050   83.4690   33.9270 C.ar  151  TRP151      0.0152
     87  NE1       27.8710   82.6990   36.0390 N.ar  151  TRP151     -0.2442
     88  CE2       28.1430   83.7990   35.2640 C.ar  151  TRP151      0.0810
     89  CE3       27.9930   84.4330   32.9340 C.ar  151  TRP151      0.0012
     90  CZ2       28.6520   85.0580   35.6290 C.ar  151  TRP151      0.0191
     91  CZ3       28.5070   85.7040   33.3040 C.ar  151  TRP151      0.0001
     92  CH2       28.8180   85.9960   34.6370 C.ar  151  TRP151      0.0015
     93  N         22.0860   81.4960   29.6900 N.3   153  HIS153     -0.1226
     94  CA        21.1510   82.4140   28.9810 C.3   153  HIS153      0.1752
     95  C         21.9010   83.5400   28.2740 C.2   153  HIS153      0.2595
     96  O         21.4410   83.9780   27.2290 O.2   153  HIS153     -0.2718
     97  CB        19.8860   82.8410   29.8500 C.3   153  HIS153      0.0759
     98  CG        20.0220   84.0970   30.6800 C.ar  153  HIS153      0.0818
     99  ND1       20.8610   84.2000   31.7720 N.ar  153  HIS153     -0.2268
    100  CD2       19.3680   85.2880   30.6060 C.ar  153  HIS153      0.1154
    101  CE1       20.7360   85.4090   32.3100 C.ar  153  HIS153      0.1986
    102  NE2       19.8230   86.0820   31.6350 N.ar  153  HIS153     -0.2212
    103  N         23.0550   83.9700   28.8050 N.am  154  LEU154     -0.1980
    104  CA        23.9530   84.9130   28.1090 C.3   154  LEU154      0.1596
    105  C         24.5940   84.3010   26.8550 C.2   154  LEU154      0.2287
    106  O         24.7650   84.9640   25.8360 O.2   154  LEU154     -0.2864
    107  CB        25.0740   85.3980   29.0280 C.3   154  LEU154      0.0297
    108  CG        24.6840   86.1740   30.2980 C.3   154  LEU154      0.0022
    109  CD1       25.8120   87.0820   30.7930 C.3   154  LEU154      0.0001
    110  CD2       23.4120   87.0050   30.1370 C.3   154  LEU154      0.0001
    111  N         23.1420   82.1100   25.0090 N.3   156  TRP156     -0.1227
    112  CA        22.0770   82.1310   24.0190 C.3   156  TRP156      0.1737
    113  C         21.9680   83.5130   23.3710 C.2   156  TRP156      0.2595
    114  O         21.7240   83.6220   22.1680 O.2   156  TRP156     -0.2718
    115  CB        20.7430   81.7240   24.6480 C.3   156  TRP156      0.0564
    116  CG        19.5640   81.8020   23.7270 C.ar  156  TRP156      0.0003
    117  CD1       19.0480   80.8060   22.9940 C.ar  156  TRP156      0.0946
    118  CD2       18.7300   82.9490   23.4860 C.ar  156  TRP156      0.0152
    119  NE1       17.9570   81.2470   22.2720 N.ar  156  TRP156     -0.2442
    120  CE2       17.7370   82.5600   22.5610 C.ar  156  TRP156      0.0810
    121  CE3       18.7120   84.2630   23.9680 C.ar  156  TRP156      0.0012
    122  CZ2       16.7330   83.4280   22.1250 C.ar  156  TRP156      0.0191
    123  CZ3       17.7470   85.1350   23.5100 C.ar  156  TRP156      0.0001
    124  CH2       16.7720   84.7220   22.5980 C.ar  156  TRP156      0.0015
    125  N         22.1600   84.5630   24.1640 N.am  157  VAL157     -0.1980
    126  CA        22.0390   85.9380   23.6430 C.3   157  VAL157      0.1595
    127  C         23.1580   86.1800   22.6260 C.2   157  VAL157      0.2287
    128  O         22.9430   86.7230   21.5310 O.2   157  VAL157     -0.2864
    129  CB        22.1060   87.0100   24.7800 C.3   157  VAL157      0.0276
    130  CG1       22.2270   88.4240   24.2110 C.3   157  VAL157      0.0022
    131  CG2       20.8750   86.8850   25.6660 C.3   157  VAL157      0.0022
@<TRIPOS>BOND
     1   128   127    2
     2   122   120   ar
     3   122   124   ar
     4   114   113    2
     5   119   120   ar
     6   119   117   ar
     7   120   118   ar
     8   124   123   ar
     9   127   126    1
    10    43    42    2
    11    47    45    1
    12   117   116   ar
    13   113   112    1
    14   113   125   am
    15    41    40    1
    16    41    42    1
    17    41    44    1
    18   118   116   ar
    19   118   121   ar
    20   123   121   ar
    21   126   125    1
    22   126   129    1
    23   116   115    1
    24   112   115    1
    25   112   111    1
    26   130   129    1
    27    45    44    1
    28    45    46    1
    29   129   131    1
    30    48    49    1
    31    49    52    1
    32    49    50    1
    33   106   105    2
    34    52    53    1
    35    31    30    2
    36    54    53   ar
    37    54    56   ar
    38   105   104    1
    39    50    51    2
    40    30    29    1
    41    53    55   ar
    42    96    95    2
    43    56    58   ar
    44    28    29    1
    45    29    32    1
    46   104   103    1
    47   104   107    1
    48    95   103   am
    49    95    94    1
    50    55    57   ar
    51    58    57   ar
    52    94    93    1
    53    94    97    1
    54   107   108    1
    55    32    33    1
    56    97    98    1
    57    33    35   ar
    58    33    34   ar
    59    82    81    2
    60    35    37   ar
    61   110   108    1
    62    34    36   ar
    63    70    69    1
    64   108   109    1
    65    37    38   ar
    66    36    38   ar
    67   100    98   ar
    68   100   102   ar
    69    38    39    1
    70    98    99   ar
    71    67    69   ar
    72    67    65   ar
    73    59    60    1
    74    69    68   ar
    75    81    80    1
    76    65    64   ar
    77    68    66   ar
    78   102   101   ar
    79    99   101   ar
    80    60    63    1
    81    60    61    1
    82    64    66   ar
    83    64    63    1
    84    80    83    1
    85    80    79    1
    86    83    84    1
    87    89    91   ar
    88    89    86   ar
    89    61    62    2
    90    74    73    2
    91    91    92   ar
    92    79    73   am
    93    73    72    1
    94    84    86   ar
    95    84    85   ar
    96    24    26   ar
    97    24    22   ar
    98    86    88   ar
    99    26    27   ar
   100    92    90   ar
   101    71    72    1
   102    72    75    1
   103    21    22    1
   104    21    18    1
   105    22    23   ar
   106    27    25   ar
   107    85    87   ar
   108    88    90   ar
   109    88    87   ar
   110    19    18    1
   111    19    20    2
   112    18    17    1
   113    23    25   ar
   114    75    77    1
   115    75    76    1
   116    76    78    1
   117    14    16    1
   118    14    13    1
   119    10     9    1
   120    10    13    1
   121    10    11    1
   122    12    11    2
   123    13    15    1
   124     1     2    1
   125     2     3    1
   126     2     5    1
   127     4     3    2
   128     6     5    1
   129     6     8    1
   130     5     7    1
