@<TRIPOS>MOLECULE
tmp/1rg5A06.pdb
 91 90 0 0 0
SMALL
GASTEIGER

@<TRIPOS>ATOM
      1  N         -1.2070   88.4330   55.4670 N.3    26  VAL26      -0.1245
      2  CA        -0.1680   87.7540   56.2790 C.3    26  VAL26       0.1561
      3  C          1.0200   88.7490   56.4770 C.2    26  VAL26       0.2260
      4  O          1.8000   88.9780   55.5430 O.2    26  VAL26      -0.2867
      5  CB         0.3440   86.4950   55.5410 C.3    26  VAL26       0.0252
      6  CG1        1.5010   85.8310   56.2910 C.3    26  VAL26       0.0019
      7  CG2       -0.7760   85.4910   55.3780 C.3    26  VAL26       0.0019
      8  N          1.8080   91.4840   53.6490 N.3    29  PHE29      -0.1227
      9  CA         1.3550   91.0010   52.3410 C.3    29  PHE29       0.1736
     10  C         -0.1670   90.7850   52.2410 C.2    29  PHE29       0.2595
     11  O         -0.7400   90.0410   53.0300 O.2    29  PHE29      -0.2718
     12  CB         2.0320   89.6440   52.0240 C.3    29  PHE29       0.0547
     13  CG         3.5340   89.7000   51.9100 C.ar   29  PHE29      -0.0202
     14  CD1        4.1410   90.1880   50.7740 C.ar   29  PHE29      -0.0042
     15  CD2        4.3450   89.1840   52.9210 C.ar   29  PHE29      -0.0042
     16  CE1        5.5480   90.2280   50.6760 C.ar   29  PHE29      -0.0003
     17  CE2        5.7430   89.2110   52.8210 C.ar   29  PHE29      -0.0003
     18  CZ         6.3400   89.7350   51.7200 C.ar   29  PHE29      -0.0000
     19  N         -0.8040   91.3860   51.2350 N.am   30  TYR30      -0.1962
     20  CA        -2.1910   91.0150   50.8790 C.3    30  TYR30       0.1771
     21  C         -2.1960   89.6430   50.1850 C.2    30  TYR30       0.2619
     22  O         -1.3070   89.3660   49.4010 O.2    30  TYR30      -0.2715
     23  CB        -2.8520   92.0790   49.9690 C.3    30  TYR30       0.0574
     24  CG        -4.3010   91.7460   49.6350 C.ar   30  TYR30      -0.0198
     25  CD1       -5.2780   91.8120   50.6110 C.ar   30  TYR30      -0.0009
     26  CD2       -4.6880   91.3640   48.3560 C.ar   30  TYR30      -0.0009
     27  CE1       -6.6050   91.4990   50.3380 C.ar   30  TYR30       0.0417
     28  CE2       -6.0180   91.0280   48.0650 C.ar   30  TYR30       0.0417
     29  CZ        -6.9650   91.1070   49.0700 C.ar   30  TYR30       0.1957
     30  OH        -8.2910   90.8160   48.8370 O.3    30  TYR30      -0.2866
     31  N         -3.1860   88.8040   50.4570 N.am   31  VAL31      -0.1977
     32  CA        -3.2480   87.4820   49.8510 C.3    31  VAL31       0.1596
     33  C         -4.1810   87.4810   48.6290 C.2    31  VAL31       0.2287
     34  O         -3.7280   87.6400   47.5030 O.2    31  VAL31      -0.2864
     35  CB        -3.6570   86.4100   50.9060 C.3    31  VAL31       0.0276
     36  CG1       -3.8420   85.0050   50.2790 C.3    31  VAL31       0.0022
     37  CG2       -2.6080   86.3380   52.0440 C.3    31  VAL31       0.0022
     38  N         -3.0590   85.5910   45.1570 N.3    35  GLY35      -0.1210
     39  CA        -1.9630   85.2610   46.0470 C.3    35  GLY35       0.1956
     40  C         -1.7750   83.7610   46.2350 C.2    35  GLY35       0.2611
     41  O         -0.6330   83.2430   46.2260 O.2    35  GLY35      -0.2717
     42  N         -2.8900   83.0460   46.4210 N.am   36  VAL36      -0.1979
     43  CA        -2.8430   81.5700   46.5100 C.3    36  VAL36       0.1595
     44  C         -2.3450   80.9270   45.1850 C.2    36  VAL36       0.2287
     45  O         -1.5610   79.9680   45.1880 O.2    36  VAL36      -0.2864
     46  CB        -4.2110   80.9750   46.9080 C.3    36  VAL36       0.0276
     47  CG1       -4.1460   79.4250   47.0070 C.3    36  VAL36       0.0022
     48  CG2       -4.6810   81.5620   48.2310 C.3    36  VAL36       0.0022
     49  N         -0.4330   82.3620   42.9120 N.3    38  THR38      -0.1203
     50  CA         0.9920   82.5680   42.6010 C.3    38  THR38       0.1994
     51  C          1.8980   81.6550   43.4460 C.2    38  THR38       0.2617
     52  O          2.8840   81.1510   42.9390 O.2    38  THR38      -0.2717
     53  CB         1.5360   84.0690   42.4780 C.3    38  THR38       0.1784
     54  OG1        2.3820   84.3770   43.5680 O.3    38  THR38      -0.2211
     55  CG2        0.5090   85.1220   42.4680 C.3    38  THR38       0.0376
     56  N          1.5230   81.3930   44.6930 N.am   39  PHE39      -0.1975
     57  CA         2.2730   80.4700   45.5430 C.3    39  PHE39       0.1639
     58  C          2.3280   79.0440   44.9660 C.2    39  PHE39       0.2290
     59  O          3.3430   78.3610   45.0540 O.2    39  PHE39      -0.2864
     60  CB         1.6640   80.4560   46.9540 C.3    39  PHE39       0.0560
     61  CG         2.3500   79.5070   47.9100 C.ar   39  PHE39      -0.0200
     62  CD1        3.4720   79.9100   48.6310 C.ar   39  PHE39      -0.0042
     63  CD2        1.8670   78.2230   48.1020 C.ar   39  PHE39      -0.0042
     64  CE1        4.1090   79.0230   49.5170 C.ar   39  PHE39      -0.0003
     65  CE2        2.5010   77.3260   48.9740 C.ar   39  PHE39      -0.0003
     66  CZ         3.6280   77.7320   49.6810 C.ar   39  PHE39      -0.0000
     67  N          0.3280   87.2950   39.3920 N.3   100  TRP100     -0.1241
     68  CA         0.8860   88.4460   40.1170 C.3   100  TRP100      0.1605
     69  C          0.2530   89.7460   39.6110 C.2   100  TRP100      0.2264
     70  O         -0.0550   90.6480   40.4000 O.2   100  TRP100     -0.2867
     71  CB         2.3930   88.4660   39.9670 C.3   100  TRP100      0.0550
     72  CG         3.1240   89.4590   40.7680 C.ar  100  TRP100      0.0003
     73  CD1        3.4870   90.7350   40.3760 C.ar  100  TRP100      0.0946
     74  CD2        3.6230   89.3040   42.0970 C.ar  100  TRP100      0.0152
     75  NE1        4.1610   91.3730   41.3920 N.ar  100  TRP100     -0.2442
     76  CE2        4.2910   90.5110   42.4480 C.ar  100  TRP100      0.0810
     77  CE3        3.5740   88.2790   43.0390 C.ar  100  TRP100      0.0012
     78  CZ2        4.8920   90.7080   43.6920 C.ar  100  TRP100      0.0191
     79  CZ3        4.2050   88.4750   44.2940 C.ar  100  TRP100      0.0001
     80  CH2        4.8480   89.6760   44.5980 C.ar  100  TRP100      0.0015
     81  N         -3.4860   89.9870   40.9730 N.3   103  ARG103     -0.1245
     82  CA        -3.4430   90.3160   42.4090 C.3   103  ARG103      0.1563
     83  C         -3.2370   91.8390   42.5780 C.2   103  ARG103      0.2260
     84  O         -3.8630   92.4670   43.4490 O.2   103  ARG103     -0.2867
     85  CB        -2.3640   89.4970   43.1310 C.3   103  ARG103      0.0307
     86  CG        -1.9680   89.9450   44.5380 C.3   103  ARG103      0.0489
     87  CD        -1.1600   88.8650   45.3230 C.3   103  ARG103      0.2205
     88  NE        -0.6350   89.2870   46.6440 N.pl3 103  ARG103     -0.0865
     89  CZ         0.5290   89.9510   46.8360 C.cat 103  ARG103      0.5346
     90  NH1        1.3010   90.3190   45.8140 N.pl3 103  ARG103      0.1354
     91  NH2        0.9390   90.2370   48.0610 N.pl3 103  ARG103      0.1354
@<TRIPOS>BOND
     1    67    68    1
     2    69    68    1
     3    69    70    2
     4    71    68    1
     5    71    72    1
     6    73    72   ar
     7    73    75   ar
     8    72    74   ar
     9    81    82    1
    10    75    76   ar
    11    74    76   ar
    12    74    77   ar
    13    82    83    1
    14    82    85    1
    15    76    78   ar
    16    55    53    1
    17    53    50    1
    18    53    54    1
    19    83    84    2
    20    50    49    1
    21    50    51    1
    22    52    51    2
    23    77    79   ar
    24    85    86    1
    25    51    56   am
    26    78    80   ar
    27    79    80   ar
    28    86    87    1
    29    56    57    1
    30    58    59    2
    31    58    57    1
    32    38    39    1
    33    44    45    2
    34    44    43    1
    35    87    88    1
    36    57    60    1
    37    90    89    1
    38    39    40    1
    39    41    40    2
    40    40    42   am
    41    42    43    1
    42    43    46    1
    43    88    89    2
    44    89    91    1
    45    46    47    1
    46    46    48    1
    47    60    61    1
    48    34    33    2
    49    61    63   ar
    50    61    62   ar
    51    28    26   ar
    52    28    29   ar
    53    63    65   ar
    54    26    24   ar
    55    33    32    1
    56    62    64   ar
    57    30    29    1
    58    65    66   ar
    59    29    27   ar
    60    22    21    2
    61    64    66   ar
    62    24    23    1
    63    24    25   ar
    64    32    31    1
    65    32    35    1
    66    23    20    1
    67    21    31   am
    68    21    20    1
    69    36    35    1
    70    27    25   ar
    71    16    14   ar
    72    16    18   ar
    73    14    13   ar
    74    20    19    1
    75    35    37    1
    76    19    10   am
    77    18    17   ar
    78    13    12    1
    79    13    15   ar
    80    12     9    1
    81    10     9    1
    82    10    11    2
    83     9     8    1
    84    17    15   ar
    85     7     5    1
    86     1     2    1
    87     5     2    1
    88     5     6    1
    89     4     3    2
    90     2     3    1
