@<TRIPOS>MOLECULE
tmp/1rg5A07.pdb
 234 229 0 0 0
SMALL
GASTEIGER

@<TRIPOS>ATOM
      1  N         17.4950   97.6140   12.7440 N.3   171  PRO171     -0.2116
      2  CA        16.9870   98.9870   12.9480 C.3   171  PRO171      0.1372
      3  C         15.9880   99.1750   14.1030 C.2   171  PRO171      0.2244
      4  O         15.9650  100.2380   14.7180 O.2   171  PRO171     -0.2868
      5  CB        16.3450   99.3300   11.6050 C.3   171  PRO171      0.0268
      6  CG        16.0030   98.0280   10.9960 C.3   171  PRO171      0.0207
      7  CD        17.0150   97.0570   11.4700 C.3   171  PRO171      0.0892
      8  N         18.1100   99.4220   17.2130 N.3   174  MET174     -0.1230
      9  CA        18.6410  100.7800   17.3660 C.3   174  MET174      0.1702
     10  C         17.6540  101.7250   18.1010 C.2   174  MET174      0.2592
     11  O         18.0510  102.5070   18.9530 O.2   174  MET174     -0.2718
     12  CB        18.9830  101.3830   15.9980 C.3   174  MET174      0.0401
     13  CG        20.1110  100.7070   15.2480 C.3   174  MET174      0.0596
     14  SD        20.3660  101.4770   13.6230 S.3   174  MET174     -0.1393
     15  CE        21.7610  100.6170   12.9740 C.3   174  MET174      0.0692
     16  N         16.3740  101.6520   17.7480 N.am  175  ILE175     -0.1980
     17  CA        15.3570  102.4820   18.3620 C.3   175  ILE175      0.1595
     18  C         15.1510  102.0880   19.8270 C.2   175  ILE175      0.2287
     19  O         15.1000  102.9600   20.7080 O.2   175  ILE175     -0.2864
     20  CB        14.0330  102.3820   17.5720 C.3   175  ILE175      0.0276
     21  CG1       14.1800  103.0870   16.2270 C.3   175  ILE175      0.0022
     22  CG2       12.8360  103.0070   18.3610 C.3   175  ILE175      0.0022
     23  CD1       13.1710  102.6050   15.1890 C.3   175  ILE175      0.0001
     24  N         17.8580  103.5650   22.0450 N.3   178  SER178     -0.1202
     25  CA        17.6620  104.9980   22.2440 C.3   178  SER178      0.2020
     26  C         16.7030  105.3130   23.3750 C.2   178  SER178      0.2618
     27  O         16.9800  106.1880   24.1960 O.2   178  SER178     -0.2717
     28  CB        17.1460  105.6530   20.9750 C.3   178  SER178      0.2103
     29  OG        18.1370  105.4740   20.0150 O.3   178  SER178     -0.2182
     30  N         15.5950  104.5850   23.4020 N.am  179  PHE179     -0.1975
     31  CA        14.6360  104.6750   24.4790 C.3   179  PHE179      0.1639
     32  C         15.2210  104.2430   25.8450 C.2   179  PHE179      0.2290
     33  O         15.0050  104.9700   26.8140 O.2   179  PHE179     -0.2864
     34  CB        13.3610  103.8980   24.1370 C.3   179  PHE179      0.0560
     35  CG        12.4350  104.6160   23.1520 C.ar  179  PHE179     -0.0200
     36  CD1       11.7700  105.8010   23.5240 C.ar  179  PHE179     -0.0042
     37  CD2       12.1390  104.0540   21.9080 C.ar  179  PHE179     -0.0042
     38  CE1       10.8640  106.4350   22.6320 C.ar  179  PHE179     -0.0003
     39  CE2       11.2580  104.6970   21.0140 C.ar  179  PHE179     -0.0003
     40  CZ        10.6360  105.8840   21.3680 C.ar  179  PHE179     -0.0000
     41  N         17.6140  107.0210   26.8720 N.3   182  THR182     -0.1218
     42  CA        16.8920  108.2820   27.1250 C.3   182  THR182      0.1862
     43  C         16.1310  108.1810   28.4930 C.2   182  THR182      0.2287
     44  O         16.1080  109.1390   29.2760 O.2   182  THR182     -0.2866
     45  CB        15.9620  108.6270   25.9020 C.3   182  THR182      0.1770
     46  OG1       16.7420  108.8720   24.7170 O.3   182  THR182     -0.2211
     47  CG2       15.2330  109.9700   26.0810 C.3   182  THR182      0.0375
     48  N         18.5750  108.7390   31.3710 N.3   185  LEU185     -0.1231
     49  CA        18.8220  110.2260   31.4470 C.3   185  LEU185      0.1693
     50  C         17.7140  111.0060   32.2440 C.2   185  LEU185      0.2591
     51  O         17.9920  111.7510   33.1960 O.2   185  LEU185     -0.2718
     52  CB        18.9140  110.8020   30.0030 C.3   185  LEU185      0.0284
     53  CG        19.6680  112.1090   29.6980 C.3   185  LEU185      0.0019
     54  CD1       19.5690  112.4890   28.2180 C.3   185  LEU185      0.0001
     55  CD2       19.1940  113.2460   30.4980 C.3   185  LEU185      0.0001
     56  N         16.4630  110.7900   31.8080 N.am  186  ALA186     -0.1980
     57  CA        15.2630  111.3570   32.4190 C.3   186  ALA186      0.1597
     58  C         15.0480  110.9640   33.9040 C.2   186  ALA186      0.2287
     59  O         14.6520  111.8120   34.7160 O.2   186  ALA186     -0.2864
     60  CB        14.0510  110.9790   31.6030 C.3   186  ALA186      0.0319
     61  N         17.5710  112.9810   35.9540 N.3   189  LEU189     -0.1231
     62  CA        17.1530  114.3930   36.0270 C.3   189  LEU189      0.1693
     63  C         15.9620  114.5850   36.9820 C.2   189  LEU189      0.2592
     64  O         15.9740  115.4920   37.8060 O.2   189  LEU189     -0.2718
     65  CB        16.7990  114.9410   34.6320 C.3   189  LEU189      0.0284
     66  CG        17.9290  115.1170   33.6210 C.3   189  LEU189      0.0019
     67  CD1       17.3680  115.4360   32.2470 C.3   189  LEU189      0.0001
     68  CD2       18.9570  116.1860   34.0260 C.3   189  LEU189      0.0001
     69  N         14.9650  113.6960   36.8930 N.am  190  HIS190     -0.1976
     70  CA        13.7810  113.8110   37.7660 C.3   190  HIS190      0.1656
     71  C         14.1310  113.6970   39.2480 C.2   190  HIS190      0.2291
     72  O         13.7050  114.5370   40.0530 O.2   190  HIS190     -0.2864
     73  CB        12.6620  112.8290   37.4000 C.3   190  HIS190      0.0771
     74  CG        11.4620  112.9510   38.2830 C.ar  190  HIS190      0.0820
     75  ND1       10.7320  114.1140   38.3830 N.ar  190  HIS190     -0.2267
     76  CD2       10.8710  112.0710   39.1280 C.ar  190  HIS190      0.1154
     77  CE1        9.7460  113.9500   39.2440 C.ar  190  HIS190      0.1986
     78  NE2        9.8140  112.7280   39.7240 N.ar  190  HIS190     -0.2212
     79  N         16.1860  116.7100   40.4150 N.3   193  LEU193     -0.1231
     80  CA        15.4660  117.9770   40.4490 C.3   193  LEU193      0.1693
     81  C         14.6310  118.0780   41.7490 C.2   193  LEU193      0.2591
     82  O         14.7850  119.0340   42.5120 O.2   193  LEU193     -0.2718
     83  CB        14.6180  118.1950   39.1790 C.3   193  LEU193      0.0284
     84  CG        13.9200  119.5720   39.0120 C.3   193  LEU193      0.0019
     85  CD1       14.9400  120.7790   38.9440 C.3   193  LEU193      0.0001
     86  CD2       13.0530  119.6070   37.7660 C.3   193  LEU193      0.0001
     87  N         13.7830  117.0800   42.0020 N.am  194  VAL194     -0.1980
     88  CA        12.9770  117.0700   43.2130 C.3   194  VAL194      0.1595
     89  C         13.8630  117.1790   44.4820 C.2   194  VAL194      0.2287
     90  O         13.5740  117.9720   45.3900 O.2   194  VAL194     -0.2864
     91  CB        12.0430  115.8370   43.2510 C.3   194  VAL194      0.0276
     92  CG1       11.3700  115.6790   44.6200 C.3   194  VAL194      0.0022
     93  CG2       10.9650  115.9040   42.1610 C.3   194  VAL194      0.0022
     94  N          7.6880  124.1950   43.2840 N.3   209  PRO209     -0.2116
     95  CA         7.6820  123.7440   41.8950 C.3   209  PRO209      0.1372
     96  C          8.0050  124.8620   40.8980 C.2   209  PRO209      0.2244
     97  O          8.6150  124.5840   39.8710 O.2   209  PRO209     -0.2868
     98  CB         6.2640  123.1440   41.6880 C.3   209  PRO209      0.0268
     99  CG         5.5150  123.3940   42.9190 C.3   209  PRO209      0.0207
    100  CD         6.4870  123.7540   44.0210 C.3   209  PRO209      0.0892
    101  N         11.5320  124.7630   40.2270 N.3   212  GLU212     -0.1231
    102  CA        11.8500  123.6100   39.3710 C.3   212  GLU212      0.1699
    103  C         11.6530  123.9520   37.8820 C.2   212  GLU212      0.2592
    104  O         12.5340  123.6380   37.0630 O.2   212  GLU212     -0.2718
    105  CB        11.0240  122.3600   39.7540 C.3   212  GLU212      0.0402
    106  CG        11.2980  121.8320   41.1480 C.3   212  GLU212      0.1161
    107  CD        10.4140  120.6210   41.5280 C.2   212  GLU212      0.3649
    108  OE1        9.1900  120.7330   41.6740 O.co2 212  GLU212     -0.2457
    109  OE2       10.9510  119.5400   41.7380 O.co2 212  GLU212     -0.2457
    110  N         10.5240  124.6100   37.5380 N.am  213  ASP213     -0.1974
    111  CA        10.2980  125.1020   36.1350 C.3   213  ASP213      0.1709
    112  C         11.3010  126.1420   35.7470 C.2   213  ASP213      0.2293
    113  O         11.7980  126.1080   34.6510 O.2   213  ASP213     -0.2864
    114  CB         8.9140  125.6920   35.9260 C.3   213  ASP213      0.1436
    115  CG         7.8290  124.6510   35.9820 C.2   213  ASP213      0.3671
    116  OD1        6.7280  124.9870   36.4390 O.co2 213  ASP213     -0.2456
    117  OD2        7.9730  123.4840   35.6050 O.co2 213  ASP213     -0.2456
    118  N         14.8450  124.6140   34.8160 N.3   216  PHE216     -0.1241
    119  CA        14.9090  124.0020   33.4810 C.3   216  PHE216      0.1605
    120  C         14.7470  124.9710   32.3030 C.2   216  PHE216      0.2264
    121  O         15.3650  124.7430   31.2620 O.2   216  PHE216     -0.2867
    122  CB        13.9830  122.7710   33.3480 C.3   216  PHE216      0.0534
    123  CG        14.7050  121.5060   33.5500 C.ar  216  PHE216     -0.0203
    124  CD1       14.7280  120.9070   34.7820 C.ar  216  PHE216     -0.0042
    125  CD2       15.4920  120.9950   32.5390 C.ar  216  PHE216     -0.0042
    126  CE1       15.4840  119.7260   35.0050 C.ar  216  PHE216     -0.0003
    127  CE2       16.2600  119.8340   32.7310 C.ar  216  PHE216     -0.0003
    128  CZ        16.2630  119.1970   33.9650 C.ar  216  PHE216     -0.0000
    129  N         17.6480  124.9140   29.5250 N.3   220  VAL220     -0.1245
    130  CA        17.4480  124.4760   28.1290 C.3   220  VAL220      0.1561
    131  C         16.3030  125.1720   27.4100 C.2   220  VAL220      0.2260
    132  O         15.9460  124.7700   26.3160 O.2   220  VAL220     -0.2867
    133  CB        17.2320  122.9410   27.9930 C.3   220  VAL220      0.0252
    134  CG1       18.4160  122.1640   28.5850 C.3   220  VAL220      0.0019
    135  CG2       15.9230  122.4800   28.6730 C.3   220  VAL220      0.0019
    136  N         13.1720  125.0930   28.0840 N.3   222  TYR222     -0.1227
    137  CA        11.8670  124.4180   28.1750 C.3   222  TYR222      0.1736
    138  C         11.7610  123.6120   29.4710 C.2   222  TYR222      0.2596
    139  O         12.7350  123.0370   29.9200 O.2   222  TYR222     -0.2718
    140  CB        11.5640  123.5110   26.9380 C.3   222  TYR222      0.0548
    141  CG        10.2250  122.7640   27.0170 C.ar  222  TYR222     -0.0200
    142  CD1        9.0240  123.4440   26.9110 C.ar  222  TYR222     -0.0009
    143  CD2       10.1670  121.3860   27.2090 C.ar  222  TYR222     -0.0009
    144  CE1        7.7980  122.7880   27.0070 C.ar  222  TYR222      0.0417
    145  CE2        8.9320  120.7020   27.3080 C.ar  222  TYR222      0.0417
    146  CZ         7.7510  121.4190   27.2070 C.ar  222  TYR222      0.1957
    147  OH         6.5140  120.7900   27.3210 O.3   222  TYR222     -0.2866
    148  N         10.5730  123.5960   30.0640 N.am  223  SER223     -0.1938
    149  CA        10.2430  122.7010   31.1860 C.3   223  SER223      0.2055
    150  C          8.9370  121.9500   30.9000 C.2   223  SER223      0.2643
    151  O          7.9140  122.5690   30.5430 O.2   223  SER223     -0.2714
    152  CB        10.0510  123.5230   32.4700 C.3   223  SER223      0.2130
    153  OG         9.6670  122.6410   33.5150 O.3   223  SER223     -0.2179
    154  N          8.9480  120.6480   31.0650 N.am  224  ILE224     -0.1963
    155  CA         7.7780  119.8420   30.7490 C.3   224  ILE224      0.1727
    156  C          6.7220  119.8150   31.8890 C.2   224  ILE224      0.2617
    157  O          5.5380  119.5010   31.6510 O.2   224  ILE224     -0.2715
    158  CB         8.1960  118.3930   30.3060 C.3   224  ILE224      0.0290
    159  CG1        7.0560  117.7330   29.5220 C.3   224  ILE224      0.0022
    160  CG2        8.6120  117.4900   31.4990 C.3   224  ILE224      0.0023
    161  CD1        7.4080  116.4170   28.9430 C.3   224  ILE224      0.0001
    162  N          7.1370  120.1750   33.1090 N.am  225  GLY225     -0.1940
    163  CA         6.2270  120.2350   34.2660 C.3   225  GLY225      0.2014
    164  C          6.0860  118.9190   35.0380 C.2   225  GLY225      0.2639
    165  O          6.5070  117.8510   34.5720 O.2   225  GLY225     -0.2714
    166  N          5.4650  119.0090   36.2050 N.am  226  THR226     -0.1950
    167  CA         5.4670  117.9550   37.1820 C.3   226  THR226      0.1897
    168  C          4.5350  116.8110   36.8080 C.2   226  THR226      0.2313
    169  O          4.8510  115.6510   37.1230 O.2   226  THR226     -0.2863
    170  CB         5.1600  118.4890   38.6290 C.3   226  THR226      0.1794
    171  OG1        3.8410  119.0470   38.7210 O.3   226  THR226     -0.2208
    172  CG2        6.0870  119.6970   38.9940 C.3   226  THR226      0.0378
    173  N          6.4720  115.0160   33.4270 N.3   229  ILE229     -0.1231
    174  CA         7.6510  114.1670   33.6150 C.3   229  ILE229      0.1692
    175  C          7.3110  112.7430   34.0480 C.2   229  ILE229      0.2592
    176  O          8.0650  111.8120   33.7640 O.2   229  ILE229     -0.2718
    177  CB         8.6640  114.8210   34.6010 C.3   229  ILE229      0.0266
    178  CG1        9.9950  114.0700   34.6300 C.3   229  ILE229      0.0019
    179  CG2        8.1210  114.7900   36.0540 C.3   229  ILE229      0.0020
    180  CD1       10.6850  113.8620   33.2930 C.3   229  ILE229      0.0001
    181  N          6.1870  112.5680   34.7360 N.am  230  HIS230     -0.1976
    182  CA         5.7030  111.2330   35.1510 C.3   230  HIS230      0.1656
    183  C          5.0260  110.4920   33.9630 C.2   230  HIS230      0.2291
    184  O          5.2050  109.2950   33.7490 O.2   230  HIS230     -0.2864
    185  CB         4.7790  111.3260   36.4030 C.3   230  HIS230      0.0771
    186  CG         5.4520  111.8800   37.6400 C.ar  230  HIS230      0.0820
    187  ND1        5.3940  113.2210   37.9980 N.ar  230  HIS230     -0.2267
    188  CD2        6.2160  111.2680   38.5860 C.ar  230  HIS230      0.1154
    189  CE1        6.0960  113.4010   39.1070 C.ar  230  HIS230      0.1986
    190  NE2        6.6060  112.2330   39.4860 N.ar  230  HIS230     -0.2212
    191  N          6.0160  111.1270   30.8610 N.3   232  LEU232     -0.1245
    192  CA         7.1660  110.8610   30.0290 C.3   232  LEU232      0.1561
    193  C          7.9160  109.5810   30.4280 C.2   232  LEU232      0.2260
    194  O          8.2480  108.7480   29.5640 O.2   232  LEU232     -0.2867
    195  CB         8.1270  112.0610   30.0560 C.3   232  LEU232      0.0270
    196  CG         9.3610  112.0070   29.1190 C.3   232  LEU232      0.0019
    197  CD1        8.9540  111.8840   27.6560 C.3   232  LEU232      0.0001
    198  CD2       10.2930  113.2190   29.2480 C.3   232  LEU232      0.0001
    199  N          8.6480  106.4390   27.9110 N.3   236  LEU236     -0.1245
    200  CA         9.9560  106.0340   27.4660 C.3   236  LEU236      0.1561
    201  C         10.2040  104.5210   27.8170 C.2   236  LEU236      0.2260
    202  O         10.6550  103.7260   26.9740 O.2   236  LEU236     -0.2867
    203  CB        11.0440  106.9170   28.0850 C.3   236  LEU236      0.0270
    204  CG        11.0610  108.4090   27.7480 C.3   236  LEU236      0.0019
    205  CD1       12.0820  109.1270   28.5910 C.3   236  LEU236      0.0001
    206  CD2       11.3620  108.6710   26.2720 C.3   236  LEU236      0.0001
    207  N         20.7000   94.4090    5.0730 N.3   262  TRP262     -0.1227
    208  CA        19.4100   95.0700    4.9220 C.3   262  TRP262      0.1737
    209  C         19.5380   96.5310    4.4230 C.2   262  TRP262      0.2595
    210  O         18.7270   96.9810    3.6210 O.2   262  TRP262     -0.2718
    211  CB        18.6690   95.0270    6.2500 C.3   262  TRP262      0.0564
    212  CG        17.2970   95.6650    6.2400 C.ar  262  TRP262      0.0003
    213  CD1       16.1280   95.0870    5.8090 C.ar  262  TRP262      0.0946
    214  CD2       16.9410   96.9860    6.6990 C.ar  262  TRP262      0.0152
    215  NE1       15.0780   95.9550    5.9810 N.ar  262  TRP262     -0.2442
    216  CE2       15.5390   97.1290    6.5180 C.ar  262  TRP262      0.0810
    217  CE3       17.6610   98.0640    7.2370 C.ar  262  TRP262      0.0012
    218  CZ2       14.8440   98.3020    6.8570 C.ar  262  TRP262      0.0191
    219  CZ3       16.9740   99.2260    7.5850 C.ar  262  TRP262      0.0001
    220  CH2       15.5730   99.3360    7.3920 C.ar  262  TRP262      0.0015
    221  N         20.5690   97.2470    4.8730 N.am  263  TRP263     -0.1976
    222  CA        20.7690   98.6610    4.5450 C.3   263  TRP263      0.1640
    223  C         21.1030   98.9210    3.0740 C.2   263  TRP263      0.2290
    224  O         21.2020  100.0730    2.6680 O.2   263  TRP263     -0.2864
    225  CB        21.8750   99.2420    5.4350 C.3   263  TRP263      0.0576
    226  CG        21.4620   99.2380    6.8580 C.ar  263  TRP263      0.0006
    227  CD1       21.6230   98.2200    7.7680 C.ar  263  TRP263      0.0946
    228  CD2       20.7620  100.2850    7.5530 C.ar  263  TRP263      0.0152
    229  NE1       21.0720   98.5780    8.9730 N.ar  263  TRP263     -0.2442
    230  CE2       20.5300   99.8320    8.8700 C.ar  263  TRP263      0.0810
    231  CE3       20.2930  101.5620    7.1880 C.ar  263  TRP263      0.0012
    232  CZ2       19.8800  100.6110    9.8280 C.ar  263  TRP263      0.0191
    233  CZ3       19.6330  102.3390    8.1600 C.ar  263  TRP263      0.0001
    234  CH2       19.4340  101.8540    9.4540 C.ar  263  TRP263      0.0015
@<TRIPOS>BOND
     1   224   223    2
     2   223   222    1
     3   210   209    2
     4   209   221   am
     5   209   208    1
     6   222   221    1
     7   222   225    1
     8   208   207    1
     9   208   211    1
    10   225   226    1
    11   213   215   ar
    12   213   212   ar
    13   215   216   ar
    14   212   211    1
    15   212   214   ar
    16   216   214   ar
    17   216   218   ar
    18   214   217   ar
    19   218   220   ar
    20   226   228   ar
    21   226   227   ar
    22   231   228   ar
    23   231   233   ar
    24   217   219   ar
    25   220   219   ar
    26   228   230   ar
    27   227   229   ar
    28   233   234   ar
    29   230   229   ar
    30   230   232   ar
    31   234   232   ar
    32     6     7    1
    33     6     5    1
    34     7     1    1
    35     5     2    1
    36     1     2    1
    37     2     3    1
    38    15    14    1
    39    14    13    1
    40     3     4    2
    41    23    21    1
    42    13    12    1
    43    12     9    1
    44    21    20    1
    45     8     9    1
    46     9    10    1
    47    20    22    1
    48    20    17    1
    49    16    10   am
    50    16    17    1
    51    10    11    2
    52    17    18    1
    53    18    19    2
    54    29    28    1
    55    28    25    1
    56    39    40   ar
    57    39    37   ar
    58    40    38   ar
    59    37    35   ar
    60    24    25    1
    61    25    26    1
    62    38    36   ar
    63    35    36   ar
    64    35    34    1
    65    26    30   am
    66    26    27    2
    67    30    31    1
    68    34    31    1
    69    31    32    1
    70    46    45    1
    71    32    33    2
    72    45    47    1
    73    45    42    1
    74   206   204    1
    75   132   131    2
    76    41    42    1
    77   142   144   ar
    78   142   141   ar
    79   140   141    1
    80   140   137    1
    81   202   201    2
    82   144   146   ar
    83   141   143   ar
    84    42    43    1
    85   146   145   ar
    86   146   147    1
    87   143   145   ar
    88   131   130    1
    89   200   201    1
    90   200   199    1
    91   200   203    1
    92   197   196    1
    93   204   203    1
    94   204   205    1
    95   133   130    1
    96   133   134    1
    97   133   135    1
    98   136   137    1
    99   130   129    1
   100   137   138    1
   101    54    53    1
   102    43    44    2
   103   161   159    1
   104   196   198    1
   105   196   195    1
   106   138   139    2
   107   138   148   am
   108   159   158    1
   109   194   193    2
   110    53    52    1
   111    53    55    1
   112    52    49    1
   113   192   195    1
   114   192   193    1
   115   192   191    1
   116   148   149    1
   117   158   155    1
   118   158   160    1
   119   151   150    2
   120   155   154    1
   121   155   156    1
   122   150   154   am
   123   150   149    1
   124   149   152    1
   125   121   120    2
   126    48    49    1
   127    49    50    1
   128    60    57    1
   129   157   156    2
   130    56    50   am
   131    56    57    1
   132   156   162   am
   133    50    51    2
   134    67    66    1
   135   120   119    1
   136    57    58    1
   137   152   153    1
   138   125   127   ar
   139   125   123   ar
   140   127   128   ar
   141   162   163    1
   142   180   178    1
   143   122   119    1
   144   122   123    1
   145   173   174    1
   146   119   118    1
   147   123   124   ar
   148   174   175    1
   149   174   177    1
   150    66    68    1
   151    66    65    1
   152   184   183    2
   153   176   175    2
   154    58    59    2
   155   183   182    1
   156   128   126   ar
   157   175   181   am
   158   163   164    1
   159   165   164    2
   160   177   178    1
   161   177   179    1
   162    65    62    1
   163   113   112    2
   164   181   182    1
   165   124   126   ar
   166   164   166   am
   167   182   185    1
   168   117   115   ar
   169   112   111    1
   170   114   115    1
   171   114   111    1
   172    61    62    1
   173   115   116   ar
   174    62    63    1
   175   111   110    1
   176   166   167    1
   177   185   186    1
   178   168   169    2
   179   168   167    1
   180    69    63   am
   181    69    70    1
   182    63    64    2
   183   104   103    2
   184   167   170    1
   185    73    70    1
   186    73    74    1
   187   110   103   am
   188   186   187   ar
   189   186   188   ar
   190    86    84    1
   191    70    71    1
   192   103   102    1
   193   187   189   ar
   194    74    75   ar
   195    74    76   ar
   196    75    77   ar
   197   188   190   ar
   198   170   171    1
   199   170   172    1
   200    85    84    1
   201    84    83    1
   202   189   190   ar
   203    76    78   ar
   204    83    80    1
   205    77    78   ar
   206    71    72    2
   207   102   105    1
   208   102   101    1
   209   105   106    1
   210    97    96    2
   211    79    80    1
   212    80    81    1
   213    96    95    1
   214   106   107    1
   215   107   108   ar
   216   107   109   ar
   217    98    95    1
   218    98    99    1
   219    81    87   am
   220    81    82    2
   221    95    94    1
   222    87    88    1
   223    93    91    1
   224    99   100    1
   225    88    91    1
   226    88    89    1
   227    91    92    1
   228    94   100    1
   229    89    90    2
