@<TRIPOS>MOLECULE
tmp/1rg5A00.pdb
 83 80 0 0 0
SMALL
GASTEIGER

@<TRIPOS>ATOM
      1  N         23.8850   94.9250   16.1100 N.3   168  HIS168     -0.1241
      2  CA        23.7260   96.3900   16.1220 C.3   168  HIS168      0.1621
      3  C         22.9620   96.9040   14.8860 C.2   168  HIS168      0.2264
      4  O         22.3090   97.9260   14.9490 O.2   168  HIS168     -0.2867
      5  CB        25.0960   97.0810   16.1340 C.3   168  HIS168      0.0745
      6  CG        25.7990   97.0330   17.4510 C.ar  168  HIS168      0.0817
      7  ND1       27.1770   97.0310   17.5540 N.ar  168  HIS168     -0.2268
      8  CD2       25.3240   97.0040   18.7220 C.ar  168  HIS168      0.1154
      9  CE1       27.5180   97.0070   18.8330 C.ar  168  HIS168      0.1986
     10  NE2       26.4110   96.9780   19.5620 N.ar  168  HIS168     -0.2212
     11  N         16.2110   97.4710   16.8240 N.3   173  HIS173     -0.1226
     12  CA        17.1290   97.3130   17.9880 C.3   173  HIS173      0.1752
     13  C         17.7980   98.6790   18.2680 C.2   173  HIS173      0.2595
     14  O         18.0130   99.0460   19.4150 O.2   173  HIS173     -0.2718
     15  CB        18.1550   96.1930   17.6470 C.3   173  HIS173      0.0759
     16  CG        19.1380   95.8440   18.7260 C.ar  173  HIS173      0.0818
     17  ND1       20.3850   96.4370   18.8220 N.ar  173  HIS173     -0.2268
     18  CD2       19.1070   94.8850   19.6880 C.ar  173  HIS173      0.1154
     19  CE1       21.0630   95.8820   19.8160 C.ar  173  HIS173      0.1986
     20  NE2       20.3100   94.9420   20.3670 N.ar  173  HIS173     -0.2212
     21  N         18.1100   99.4220   17.2130 N.am  174  MET174     -0.1979
     22  CA        18.6410  100.7800   17.3660 C.3   174  MET174      0.1605
     23  C         17.6540  101.7250   18.1010 C.2   174  MET174      0.2287
     24  O         18.0510  102.5070   18.9530 O.2   174  MET174     -0.2864
     25  CB        18.9830  101.3830   15.9980 C.3   174  MET174      0.0413
     26  CG        20.1110  100.7070   15.2480 C.3   174  MET174      0.0598
     27  SD        20.3660  101.4770   13.6230 S.3   174  MET174     -0.1393
     28  CE        21.7610  100.6170   12.9740 C.3   174  MET174      0.0692
     29  N         17.2740  100.7560   21.9220 N.3   177  ILE177     -0.1231
     30  CA        18.4230  101.2590   22.7060 C.3   177  ILE177      0.1692
     31  C         18.2870  102.7680   23.0270 C.2   177  ILE177      0.2592
     32  O         18.5780  103.1860   24.1510 O.2   177  ILE177     -0.2718
     33  CB        19.7500  100.9230   21.9660 C.3   177  ILE177      0.0266
     34  CG1       20.0510   99.4210   22.0960 C.3   177  ILE177      0.0019
     35  CG2       20.9600  101.6950   22.5260 C.3   177  ILE177      0.0020
     36  CD1       21.2260   98.9180   21.2130 C.3   177  ILE177      0.0001
     37  N         17.8580  103.5650   22.0450 N.am  178  SER178     -0.1952
     38  CA        17.6620  104.9980   22.2440 C.3   178  SER178      0.1924
     39  C         16.7030  105.3130   23.3750 C.2   178  SER178      0.2314
     40  O         16.9800  106.1880   24.1960 O.2   178  SER178     -0.2863
     41  CB        17.1460  105.6530   20.9750 C.3   178  SER178      0.2116
     42  OG        18.1370  105.4740   20.0150 O.3   178  SER178     -0.2180
     43  N         18.4800  104.3160   26.8520 N.3   181  PHE181     -0.1227
     44  CA        19.4280  105.3560   27.2450 C.3   181  PHE181      0.1736
     45  C         18.6650  106.6750   27.6240 C.2   181  PHE181      0.2596
     46  O         19.0480  107.3790   28.5710 O.2   181  PHE181     -0.2718
     47  CB        20.4040  105.6900   26.0940 C.3   181  PHE181      0.0547
     48  CG        21.4270  104.6260   25.7720 C.ar  181  PHE181     -0.0202
     49  CD1       21.6600  103.5110   26.6010 C.ar  181  PHE181     -0.0042
     50  CD2       22.2280  104.7700   24.6360 C.ar  181  PHE181     -0.0042
     51  CE1       22.6500  102.5620   26.2880 C.ar  181  PHE181     -0.0003
     52  CE2       23.2300  103.8160   24.3210 C.ar  181  PHE181     -0.0003
     53  CZ        23.4480  102.7150   25.1730 C.ar  181  PHE181     -0.0000
     54  N         17.6140  107.0210   26.8720 N.am  182  THR182     -0.1953
     55  CA        16.8920  108.2820   27.1250 C.3   182  THR182      0.1897
     56  C         16.1310  108.1810   28.4930 C.2   182  THR182      0.2313
     57  O         16.1080  109.1390   29.2760 O.2   182  THR182     -0.2863
     58  CB        15.9620  108.6270   25.9020 C.3   182  THR182      0.1794
     59  OG1       16.7420  108.8720   24.7170 O.3   182  THR182     -0.2208
     60  CG2       15.2330  109.9700   26.0810 C.3   182  THR182      0.0378
     61  N         18.5750  108.7390   31.3710 N.3   185  LEU185     -0.1245
     62  CA        18.8220  110.2260   31.4470 C.3   185  LEU185      0.1561
     63  C         17.7140  111.0060   32.2440 C.2   185  LEU185      0.2260
     64  O         17.9920  111.7510   33.1960 O.2   185  LEU185     -0.2867
     65  CB        18.9140  110.8020   30.0030 C.3   185  LEU185      0.0270
     66  CG        19.6680  112.1090   29.6980 C.3   185  LEU185      0.0019
     67  CD1       19.5690  112.4890   28.2180 C.3   185  LEU185      0.0001
     68  CD2       19.1940  113.2460   30.4980 C.3   185  LEU185      0.0001
     69  N         18.1220  126.6840   31.9950 N.3   219  LEU219     -0.1231
     70  CA        19.0500  125.7140   31.4250 C.3   219  LEU219      0.1693
     71  C         18.8380  125.3390   29.9360 C.2   219  LEU219      0.2591
     72  O         19.7840  125.3740   29.1670 O.2   219  LEU219     -0.2718
     73  CB        19.0540  124.4190   32.2580 C.3   219  LEU219      0.0284
     74  CG        20.2030  123.4340   32.0340 C.3   219  LEU219      0.0019
     75  CD1       21.5290  123.9830   32.5450 C.3   219  LEU219      0.0001
     76  CD2       19.9060  122.0960   32.7170 C.3   219  LEU219      0.0001
     77  N         17.6480  124.9140   29.5250 N.am  220  VAL220     -0.1980
     78  CA        17.4480  124.4760   28.1290 C.3   220  VAL220      0.1595
     79  C         16.3030  125.1720   27.4100 C.2   220  VAL220      0.2287
     80  O         15.9460  124.7700   26.3160 O.2   220  VAL220     -0.2864
     81  CB        17.2320  122.9410   27.9930 C.3   220  VAL220      0.0276
     82  CG1       18.4160  122.1640   28.5850 C.3   220  VAL220      0.0022
     83  CG2       15.9230  122.4800   28.6730 C.3   220  VAL220      0.0022
@<TRIPOS>BOND
     1    28    27    1
     2    27    26    1
     3     3     4    2
     4     3     2    1
     5    26    25    1
     6    25    22    1
     7     1     2    1
     8     2     5    1
     9     5     6    1
    10    11    12    1
    11    21    22    1
    12    21    13   am
    13    22    23    1
    14     6     7   ar
    15     6     8   ar
    16     7     9   ar
    17    15    12    1
    18    15    16    1
    19    12    13    1
    20    23    24    2
    21    13    14    2
    22     8    10   ar
    23    16    17   ar
    24    16    18   ar
    25    17    19   ar
    26     9    10   ar
    27    18    20   ar
    28    19    20   ar
    29    42    41    1
    30    41    38    1
    31    36    34    1
    32    29    30    1
    33    33    34    1
    34    33    35    1
    35    33    30    1
    36    37    38    1
    37    37    31   am
    38    38    39    1
    39    30    31    1
    40    31    32    2
    41    39    40    2
    42    52    50   ar
    43    52    53   ar
    44    50    48   ar
    45    59    58    1
    46    53    51   ar
    47    48    47    1
    48    48    49   ar
    49    58    60    1
    50    58    55    1
    51    47    44    1
    52    51    49   ar
    53    80    79    2
    54    43    44    1
    55    54    55    1
    56    54    45   am
    57    55    56    1
    58    44    45    1
    59    79    78    1
    60    45    46    2
    61    81    78    1
    62    81    82    1
    63    81    83    1
    64    78    77    1
    65    67    66    1
    66    56    57    2
    67    72    71    2
    68    77    71   am
    69    66    65    1
    70    66    68    1
    71    71    70    1
    72    65    62    1
    73    61    62    1
    74    70    69    1
    75    70    73    1
    76    62    63    1
    77    74    73    1
    78    74    75    1
    79    74    76    1
    80    63    64    2
