@<TRIPOS>MOLECULE
tmp/1rg5A05.pdb
 230 222 0 0 0
SMALL
GASTEIGER

@<TRIPOS>ATOM
      1  N         -0.4330   82.3620   42.9120 N.3    38  THR38      -0.1218
      2  CA         0.9920   82.5680   42.6010 C.3    38  THR38       0.1862
      3  C          1.8980   81.6550   43.4460 C.2    38  THR38       0.2287
      4  O          2.8840   81.1510   42.9390 O.2    38  THR38      -0.2866
      5  CB         1.5360   84.0690   42.4780 C.3    38  THR38       0.1770
      6  OG1        2.3820   84.3770   43.5680 O.3    38  THR38      -0.2211
      7  CG2        0.5090   85.1220   42.4680 C.3    38  THR38       0.0375
      8  N          1.8500   78.0370   41.7070 N.3    41  PHE41      -0.1227
      9  CA         2.6580   78.0310   40.5000 C.3    41  PHE41       0.1736
     10  C          4.1540   78.2040   40.8100 C.2    41  PHE41       0.2595
     11  O          4.9890   77.5500   40.1750 O.2    41  PHE41      -0.2718
     12  CB         2.2270   79.1300   39.5240 C.3    41  PHE41       0.0547
     13  CG         0.9620   78.8310   38.7790 C.ar   41  PHE41      -0.0202
     14  CD1        0.8540   77.6810   37.9870 C.ar   41  PHE41      -0.0042
     15  CD2       -0.1160   79.7250   38.8230 C.ar   41  PHE41      -0.0042
     16  CE1       -0.3300   77.4140   37.2700 C.ar   41  PHE41      -0.0003
     17  CE2       -1.2840   79.4800   38.1320 C.ar   41  PHE41      -0.0003
     18  CZ        -1.4050   78.3320   37.3520 C.ar   41  PHE41      -0.0000
     19  N          4.4970   79.0720   41.7630 N.am   42  ALA42      -0.1980
     20  CA         5.9080   79.3050   42.1020 C.3    42  ALA42       0.1597
     21  C          6.5450   78.0910   42.7470 C.2    42  ALA42       0.2287
     22  O          7.6640   77.7380   42.4000 O.2    42  ALA42      -0.2864
     23  CB         6.0660   80.4840   43.0010 C.3    42  ALA42       0.0319
     24  N          7.0720   75.2370   40.2080 N.3    45  GLY45      -0.1210
     25  CA         8.2150   75.6120   39.3920 C.3    45  GLY45       0.1956
     26  C          9.5720   75.3470   40.0580 C.2    45  GLY45       0.2611
     27  O         10.4970   74.7940   39.4170 O.2    45  GLY45      -0.2717
     28  N          9.7000   75.7300   41.3310 N.am   46  ILE46      -0.1979
     29  CA        10.9640   75.5440   42.0680 C.3    46  ILE46       0.1595
     30  C         11.3170   74.0360   42.2980 C.2    46  ILE46       0.2287
     31  O         12.4660   73.6030   42.1200 O.2    46  ILE46      -0.2864
     32  CB        10.9420   76.4020   43.3820 C.3    46  ILE46       0.0276
     33  CG1       11.2420   77.8460   43.0450 C.3    46  ILE46       0.0022
     34  CG2       11.9890   75.9690   44.3710 C.3    46  ILE46       0.0022
     35  CD1       10.5600   78.8570   44.0210 C.3    46  ILE46       0.0001
     36  N         12.6860   72.6520   38.9690 N.3    49  ILE49      -0.1245
     37  CA        14.0680   73.0880   38.7530 C.3    49  ILE49       0.1561
     38  C         15.0470   72.2400   39.5730 C.2    49  ILE49       0.2260
     39  O         16.0780   71.7940   39.0430 O.2    49  ILE49      -0.2867
     40  CB        14.2470   74.5690   39.0530 C.3    49  ILE49       0.0252
     41  CG1       13.5440   75.4200   37.9810 C.3    49  ILE49       0.0019
     42  CG2       15.7380   74.9480   39.0860 C.3    49  ILE49       0.0019
     43  CD1       13.4030   76.8810   38.3740 C.3    49  ILE49       0.0001
     44  N          7.8450   73.9930   33.2870 N.3    89  ILE89      -0.1245
     45  CA         8.2870   75.1700   34.0650 C.3    89  ILE89       0.1561
     46  C          7.8370   76.4640   33.3730 C.2    89  ILE89       0.2260
     47  O          7.4520   77.4300   34.0280 O.2    89  ILE89      -0.2867
     48  CB         9.8420   75.1570   34.2720 C.3    89  ILE89       0.0252
     49  CG1       10.2610   74.0450   35.2310 C.3    89  ILE89       0.0019
     50  CG2       10.3610   76.4820   34.8200 C.3    89  ILE89       0.0019
     51  CD1       11.7570   73.7070   35.1450 C.3    89  ILE89       0.0001
     52  N          4.3050   77.0230   34.3420 N.3    92  CYS92      -0.1221
     53  CA         4.2820   77.5520   35.7060 C.3    92  CYS92       0.1808
     54  C          4.6900   79.0220   35.8060 C.2    92  CYS92       0.2601
     55  O          4.0560   79.7940   36.5340 O.2    92  CYS92      -0.2717
     56  CB         5.1710   76.7160   36.6340 C.3    92  CYS92       0.0970
     57  SG         4.5680   75.0190   36.9340 S.3    92  CYS92      -0.0800
     58  N          5.7560   79.4030   35.1100 N.am   93  ALA93      -0.1979
     59  CA         6.2680   80.7810   35.1520 C.3    93  ALA93       0.1597
     60  C          5.2450   81.8060   34.6280 C.2    93  ALA93       0.2287
     61  O          4.9900   82.8420   35.2550 O.2    93  ALA93      -0.2864
     62  CB         7.5690   80.8580   34.3410 C.3    93  ALA93       0.0319
     63  N          2.4410   82.0730   37.1760 N.3    96  ALA96      -0.1231
     64  CA         2.8820   82.9860   38.2580 C.3    96  ALA96       0.1694
     65  C          2.8780   84.4660   37.8860 C.2    96  ALA96       0.2592
     66  O          2.5250   85.2910   38.7240 O.2    96  ALA96      -0.2718
     67  CB         4.2630   82.6290   38.7400 C.3    96  ALA96       0.0304
     68  N          3.2890   84.8180   36.6610 N.am   97  PHE97      -0.1976
     69  CA         3.3740   86.2380   36.2890 C.3    97  PHE97       0.1639
     70  C          1.9830   86.8400   36.0840 C.2    97  PHE97       0.2290
     71  O          1.7290   87.9270   36.5580 O.2    97  PHE97      -0.2864
     72  CB         4.2300   86.4800   35.0210 C.3    97  PHE97       0.0560
     73  CG         5.6390   85.9370   35.0930 C.ar   97  PHE97      -0.0200
     74  CD1        6.3170   85.8120   36.3050 C.ar   97  PHE97      -0.0042
     75  CD2        6.3120   85.5860   33.9230 C.ar   97  PHE97      -0.0042
     76  CE1        7.6310   85.2730   36.3530 C.ar   97  PHE97      -0.0003
     77  CE2        7.6320   85.0870   33.9630 C.ar   97  PHE97      -0.0003
     78  CZ         8.2860   84.9250   35.1860 C.ar   97  PHE97      -0.0000
     79  N          0.3280   87.2950   39.3920 N.3   100  TRP100     -0.1241
     80  CA         0.8860   88.4460   40.1170 C.3   100  TRP100      0.1605
     81  C          0.2530   89.7460   39.6110 C.2   100  TRP100      0.2264
     82  O         -0.0550   90.6480   40.4000 O.2   100  TRP100     -0.2867
     83  CB         2.3930   88.4660   39.9670 C.3   100  TRP100      0.0550
     84  CG         3.1240   89.4590   40.7680 C.ar  100  TRP100      0.0003
     85  CD1        3.4870   90.7350   40.3760 C.ar  100  TRP100      0.0946
     86  CD2        3.6230   89.3040   42.0970 C.ar  100  TRP100      0.0152
     87  NE1        4.1610   91.3730   41.3920 N.ar  100  TRP100     -0.2442
     88  CE2        4.2910   90.5110   42.4480 C.ar  100  TRP100      0.0810
     89  CE3        3.5740   88.2790   43.0390 C.ar  100  TRP100      0.0012
     90  CZ2        4.8920   90.7080   43.6920 C.ar  100  TRP100      0.0191
     91  CZ3        4.2050   88.4750   44.2940 C.ar  100  TRP100      0.0001
     92  CH2        4.8480   89.6760   44.5980 C.ar  100  TRP100      0.0015
     93  N         -2.3860   92.4270   41.7450 N.3   104  GLU104     -0.1245
     94  CA        -2.2200   93.8860   41.7340 C.3   104  GLU104      0.1567
     95  C         -3.5330   94.6520   41.4140 C.2   104  GLU104      0.2260
     96  O         -3.7730   95.7180   41.9860 O.2   104  GLU104     -0.2867
     97  CB        -1.0910   94.3090   40.7710 C.3   104  GLU104      0.0388
     98  CG         0.3260   94.0040   41.2530 C.3   104  GLU104      0.1160
     99  CD         1.4020   94.6300   40.3520 C.2   104  GLU104      0.3649
    100  OE1        1.1330   94.9190   39.1730 O.co2 104  GLU104     -0.2457
    101  OE2        2.5430   94.8450   40.8140 O.co2 104  GLU104     -0.2457
    102  N         -0.3390  100.6310   37.1660 N.3   117  ILE117     -0.1245
    103  CA         0.7870   99.7190   37.5230 C.3   117  ILE117      0.1561
    104  C          0.7340   98.3070   36.8750 C.2   117  ILE117      0.2260
    105  O          1.6800   97.9370   36.2150 O.2   117  ILE117     -0.2867
    106  CB         1.0070   99.6600   39.0710 C.3   117  ILE117      0.0252
    107  CG1        1.4470  101.0370   39.6020 C.3   117  ILE117      0.0019
    108  CG2        2.0610   98.6450   39.4110 C.3   117  ILE117      0.0019
    109  CD1        1.1470  101.2630   41.0590 C.3   117  ILE117      0.0001
    110  N          1.3190   98.5740   33.0570 N.3   120  ALA120     -0.1231
    111  CA         2.7490   98.6380   32.7630 C.3   120  ALA120      0.1694
    112  C          3.4680   97.2670   32.8890 C.2   120  ALA120      0.2592
    113  O          4.2560   96.8900   32.0310 O.2   120  ALA120     -0.2718
    114  CB         3.4170   99.6460   33.6650 C.3   120  ALA120      0.0304
    115  N          3.2170   96.5470   33.9780 N.am  121  PHE121     -0.1976
    116  CA         3.7970   95.2460   34.1910 C.3   121  PHE121      0.1639
    117  C          3.4840   94.2910   33.0040 C.2   121  PHE121      0.2290
    118  O          4.3150   93.4780   32.6260 O.2   121  PHE121     -0.2864
    119  CB         3.2960   94.6510   35.5400 C.3   121  PHE121      0.0560
    120  CG         3.8620   93.2510   35.8540 C.ar  121  PHE121     -0.0200
    121  CD1        5.2000   92.9600   35.6600 C.ar  121  PHE121     -0.0042
    122  CD2        3.0460   92.2460   36.3400 C.ar  121  PHE121     -0.0042
    123  CE1        5.7210   91.7120   35.9440 C.ar  121  PHE121     -0.0003
    124  CE2        3.5650   90.9740   36.6130 C.ar  121  PHE121     -0.0003
    125  CZ         4.9150   90.7140   36.4160 C.ar  121  PHE121     -0.0000
    126  N          3.4560   94.7490   29.9430 N.3   123  PHE123     -0.1227
    127  CA         4.4560   94.9040   28.8830 C.3   123  PHE123      0.1736
    128  C          5.6660   94.0060   29.1120 C.2   123  PHE123      0.2595
    129  O          6.1620   93.4110   28.1550 O.2   123  PHE123     -0.2718
    130  CB         4.9230   96.3720   28.6830 C.3   123  PHE123      0.0547
    131  CG         3.9550   97.2030   27.8510 C.ar  123  PHE123     -0.0202
    132  CD1        2.7050   97.5450   28.3540 C.ar  123  PHE123     -0.0042
    133  CD2        4.2940   97.6170   26.5720 C.ar  123  PHE123     -0.0042
    134  CE1        1.8100   98.2720   27.5930 C.ar  123  PHE123     -0.0003
    135  CE2        3.4150   98.3580   25.7930 C.ar  123  PHE123     -0.0003
    136  CZ         2.1710   98.6860   26.2920 C.ar  123  PHE123     -0.0000
    137  N          6.1380   93.9020   30.3560 N.am  124  ALA124     -0.1980
    138  CA         7.2500   92.9710   30.6410 C.3   124  ALA124      0.1597
    139  C          6.8790   91.5190   30.3150 C.2   124  ALA124      0.2287
    140  O          7.6420   90.7840   29.6770 O.2   124  ALA124     -0.2864
    141  CB         7.7410   93.0890   32.1200 C.3   124  ALA124      0.0319
    142  N          8.7120   88.6570   27.6780 N.3   128  TYR128     -0.1241
    143  CA         8.9830   87.2480   28.0190 C.3   128  TYR128      0.1605
    144  C          8.2740   86.2980   27.0370 C.2   128  TYR128      0.2264
    145  O          8.9080   85.3920   26.4580 O.2   128  TYR128     -0.2867
    146  CB         8.5970   86.9630   29.4970 C.3   128  TYR128      0.0534
    147  CG         8.6580   85.5150   29.9190 C.ar  128  TYR128     -0.0201
    148  CD1        9.8860   84.8920   30.1850 C.ar  128  TYR128     -0.0009
    149  CD2        7.4960   84.7590   30.0400 C.ar  128  TYR128     -0.0009
    150  CE1        9.9490   83.5590   30.5520 C.ar  128  TYR128      0.0417
    151  CE2        7.5480   83.4240   30.3960 C.ar  128  TYR128      0.0417
    152  CZ         8.7750   82.8140   30.6520 C.ar  128  TYR128      0.1957
    153  OH         8.8300   81.4650   30.9930 O.3   128  TYR128     -0.2866
    154  N         15.1120   80.4460   24.8340 N.3   146  PHE146     -0.1241
    155  CA        16.2960   80.5000   25.6840 C.3   146  PHE146      0.1605
    156  C         16.2240   79.5520   26.8760 C.2   146  PHE146      0.2264
    157  O         15.1380   79.2670   27.3800 O.2   146  PHE146     -0.2867
    158  CB        16.6230   81.9280   26.1190 C.3   146  PHE146      0.0534
    159  CG        15.6470   82.5580   27.0940 C.ar  146  PHE146     -0.0203
    160  CD1       14.5490   83.2500   26.6450 C.ar  146  PHE146     -0.0042
    161  CD2       15.9250   82.5760   28.4550 C.ar  146  PHE146     -0.0042
    162  CE1       13.6700   83.8830   27.5560 C.ar  146  PHE146     -0.0003
    163  CE2       15.0730   83.2050   29.3730 C.ar  146  PHE146     -0.0003
    164  CZ        13.9380   83.8530   28.9180 C.ar  146  PHE146     -0.0000
    165  N         17.0550   78.2030   30.8130 N.3   148  TYR148     -0.1227
    166  CA        17.0270   78.8140   32.1420 C.3   148  TYR148      0.1736
    167  C         18.2800   78.5060   32.9660 C.2   148  TYR148      0.2596
    168  O         18.3800   77.4690   33.5910 O.2   148  TYR148     -0.2718
    169  CB        15.7410   78.4270   32.8960 C.3   148  TYR148      0.0548
    170  CG        14.4340   78.7250   32.1660 C.ar  148  TYR148     -0.0200
    171  CD1       14.2730   79.8670   31.4010 C.ar  148  TYR148     -0.0009
    172  CD2       13.3530   77.8520   32.2560 C.ar  148  TYR148     -0.0009
    173  CE1       13.0790   80.1440   30.7450 C.ar  148  TYR148      0.0417
    174  CE2       12.1380   78.1190   31.6020 C.ar  148  TYR148      0.0417
    175  CZ        12.0040   79.2730   30.8510 C.ar  148  TYR148      0.1957
    176  OH        10.8060   79.5430   30.2070 O.3   148  TYR148     -0.2866
    177  N         19.2390   79.4200   32.9390 N.am  149  GLY149     -0.1942
    178  CA        20.4960   79.2880   33.6880 C.3   149  GLY149      0.2014
    179  C         21.2250   80.6240   33.6910 C.2   149  GLY149      0.2638
    180  O         21.0550   81.4110   32.7510 O.2   149  GLY149     -0.2714
    181  N         22.0260   80.8880   34.7320 N.am  150  ILE150     -0.1977
    182  CA        22.5870   82.2350   34.9680 C.3   150  ILE150      0.1596
    183  C         23.5200   82.6030   33.8160 C.2   150  ILE150      0.2287
    184  O         23.3870   83.6730   33.2420 O.2   150  ILE150     -0.2864
    185  CB        23.3880   82.3370   36.3220 C.3   150  ILE150      0.0276
    186  CG1       22.5550   81.9410   37.5580 C.3   150  ILE150      0.0022
    187  CG2       23.9510   83.7350   36.5500 C.3   150  ILE150      0.0022
    188  CD1       21.5590   82.9030   37.9140 C.3   150  ILE150      0.0001
    189  N         22.0860   81.4960   29.6900 N.3   153  HIS153     -0.1241
    190  CA        21.1510   82.4140   28.9810 C.3   153  HIS153      0.1621
    191  C         21.9010   83.5400   28.2740 C.2   153  HIS153      0.2264
    192  O         21.4410   83.9780   27.2290 O.2   153  HIS153     -0.2867
    193  CB        19.8860   82.8410   29.8500 C.3   153  HIS153      0.0745
    194  CG        20.0220   84.0970   30.6800 C.ar  153  HIS153      0.0817
    195  ND1       20.8610   84.2000   31.7720 N.ar  153  HIS153     -0.2268
    196  CD2       19.3680   85.2880   30.6060 C.ar  153  HIS153      0.1154
    197  CE1       20.7360   85.4090   32.3100 C.ar  153  HIS153      0.1986
    198  NE2       19.8230   86.0820   31.6350 N.ar  153  HIS153     -0.2212
    199  N         15.9570  103.1190   25.9340 N.3   180  PHE180     -0.1241
    200  CA        16.6360  102.7250   27.1900 C.3   180  PHE180      0.1605
    201  C         17.6090  103.7970   27.7200 C.2   180  PHE180      0.2264
    202  O         17.5900  104.0980   28.9200 O.2   180  PHE180     -0.2867
    203  CB        17.4150  101.3780   27.1040 C.3   180  PHE180      0.0534
    204  CG        16.5680  100.1610   27.3490 C.ar  180  PHE180     -0.0203
    205  CD1       16.1490   99.8290   28.6420 C.ar  180  PHE180     -0.0042
    206  CD2       16.1810   99.3370   26.2890 C.ar  180  PHE180     -0.0042
    207  CE1       15.3350   98.6790   28.8670 C.ar  180  PHE180     -0.0003
    208  CE2       15.3640   98.2050   26.5020 C.ar  180  PHE180     -0.0003
    209  CZ        14.9340   97.8790   27.7930 C.ar  180  PHE180     -0.0000
    210  N          9.8690  104.1530   29.0490 N.3   237  SER237     -0.1202
    211  CA        10.0940  102.8330   29.6000 C.3   237  SER237      0.2020
    212  C          9.2760  101.7630   28.8740 C.2   237  SER237      0.2618
    213  O          9.8120  100.6580   28.5520 O.2   237  SER237     -0.2717
    214  CB         9.8150  102.8470   31.1460 C.3   237  SER237      0.2103
    215  OG        11.1030  103.0570   31.6930 O.3   237  SER237     -0.2182
    216  N          8.0000  102.0440   28.5990 N.am  238  LEU238     -0.1979
    217  CA         7.2070  101.0660   27.8770 C.3   238  LEU238      0.1596
    218  C          7.6030  100.9580   26.3870 C.2   238  LEU238      0.2287
    219  O          7.4540   99.8880   25.7890 O.2   238  LEU238     -0.2864
    220  CB         5.7010  101.3240   28.0050 C.3   238  LEU238      0.0297
    221  CG         5.1150  101.3760   29.4300 C.3   238  LEU238      0.0022
    222  CD1        3.5960  101.5340   29.3770 C.3   238  LEU238      0.0001
    223  CD2        5.4840  100.1910   30.2730 C.3   238  LEU238      0.0001
    224  N         10.6530   98.6330   25.8470 N.3   241  VAL241     -0.1245
    225  CA        10.2310   97.2420   25.8400 C.3   241  VAL241      0.1561
    226  C          9.3740   96.8960   24.6200 C.2   241  VAL241      0.2260
    227  O          9.4780   95.7700   24.0960 O.2   241  VAL241     -0.2867
    228  CB         9.5640   96.8840   27.1980 C.3   241  VAL241      0.0252
    229  CG1        8.9660   95.4700   27.2200 C.3   241  VAL241      0.0019
    230  CG2       10.6220   96.9880   28.2970 C.3   241  VAL241      0.0019
@<TRIPOS>BOND
     1   227   226    2
     2   226   225    1
     3   154   155    1
     4   155   158    1
     5   155   156    1
     6   219   218    2
     7   135   136   ar
     8   135   133   ar
     9   225   224    1
    10   225   228    1
    11   199   200    1
    12   158   159    1
    13   206   208   ar
    14   206   204   ar
    15   136   134   ar
    16   218   217    1
    17   145   144    2
    18   208   209   ar
    19   133   131   ar
    20   160   159   ar
    21   160   162   ar
    22   156   157    2
    23   144   143    1
    24   159   161   ar
    25   203   200    1
    26   203   204    1
    27   200   201    1
    28   228   229    1
    29   228   230    1
    30   192   191    2
    31   204   205   ar
    32   162   164   ar
    33   134   132   ar
    34   142   143    1
    35   201   202    2
    36   209   207   ar
    37   131   132   ar
    38   131   130    1
    39   217   220    1
    40   217   216    1
    41   220   221    1
    42   143   146    1
    43   129   128    2
    44   191   190    1
    45   161   163   ar
    46   213   212    2
    47   216   212   am
    48   205   207   ar
    49   130   127    1
    50   212   211    1
    51   127   128    1
    52   127   126    1
    53   164   163   ar
    54   190   189    1
    55   190   193    1
    56   210   211    1
    57   128   137   am
    58   222   221    1
    59   221   223    1
    60   146   147    1
    61   211   214    1
    62   140   139    2
    63   193   194    1
    64   147   149   ar
    65   147   148   ar
    66   149   151   ar
    67   148   150   ar
    68   176   175    1
    69   139   138    1
    70   137   138    1
    71   151   152   ar
    72   150   152   ar
    73   196   194   ar
    74   196   198   ar
    75   138   141    1
    76   152   153    1
    77   194   195   ar
    78   173   175   ar
    79   173   171   ar
    80   165   166    1
    81   175   174   ar
    82   214   215    1
    83   171   170   ar
    84   174   172   ar
    85   198   197   ar
    86   195   197   ar
    87   113   112    2
    88   166   169    1
    89   166   167    1
    90   170   172   ar
    91   170   169    1
    92   118   117    2
    93   180   179    2
    94   111   112    1
    95   111   110    1
    96   111   114    1
    97   112   115   am
    98   177   167   am
    99   177   178    1
   100   167   168    2
   101   117   116    1
   102   184   183    2
   103    44    45    1
   104    46    47    2
   105    46    45    1
   106   178   179    1
   107   179   181   am
   108   183   182    1
   109    75    77   ar
   110    75    73   ar
   111    77    78   ar
   112   115   116    1
   113    45    48    1
   114   116   119    1
   115    48    50    1
   116    48    49    1
   117    62    59    1
   118    52    53    1
   119    60    59    1
   120    60    61    2
   121   181   182    1
   122   182   185    1
   123    72    73    1
   124    72    69    1
   125    73    74   ar
   126    58    59    1
   127    58    54   am
   128    51    49    1
   129    78    76   ar
   130   119   120    1
   131   121   120   ar
   132   121   123   ar
   133    53    54    1
   134    53    56    1
   135    54    55    2
   136   120   122   ar
   137   123   125   ar
   138    70    69    1
   139    70    71    2
   140   105   104    2
   141    69    68    1
   142    74    76   ar
   143   185   187    1
   144   185   186    1
   145   122   124   ar
   146   125   124   ar
   147    56    57    1
   148    68    65   am
   149   104   103    1
   150   102   103    1
   151    63    64    1
   152    16    18   ar
   153    16    14   ar
   154    18    17   ar
   155   103   106    1
   156   186   188    1
   157    65    64    1
   158    65    66    2
   159    41    43    1
   160    41    40    1
   161    14    13   ar
   162    17    15   ar
   163    64    67    1
   164    37    36    1
   165    37    40    1
   166    37    38    1
   167    13    15   ar
   168    13    12    1
   169    39    38    2
   170    40    42    1
   171   106   108    1
   172   106   107    1
   173   100    99   ar
   174    79    80    1
   175    25    26    1
   176    25    24    1
   177    27    26    2
   178    12     9    1
   179   107   109    1
   180    81    80    1
   181    81    82    2
   182    83    80    1
   183    83    84    1
   184    26    28   am
   185    11    10    2
   186    99   101   ar
   187    99    98    1
   188    85    84   ar
   189    85    87   ar
   190     9    10    1
   191     9     8    1
   192    84    86   ar
   193    97    98    1
   194    97    94    1
   195    10    19   am
   196    28    29    1
   197    87    88   ar
   198    95    94    1
   199    95    96    2
   200    94    93    1
   201    19    20    1
   202    29    30    1
   203    29    32    1
   204    86    88   ar
   205    86    89   ar
   206    20    21    1
   207    20    23    1
   208    31    30    2
   209    22    21    2
   210    88    90   ar
   211     7     5    1
   212     5     2    1
   213     5     6    1
   214     2     1    1
   215     2     3    1
   216     4     3    2
   217    89    91   ar
   218    33    32    1
   219    33    35    1
   220    32    34    1
   221    90    92   ar
   222    91    92   ar
