@<TRIPOS>MOLECULE
tmp/1rg5A01.pdb
 234 231 0 0 0
SMALL
GASTEIGER

@<TRIPOS>ATOM
      1  N          3.2890   84.8180   36.6610 N.3    97  PHE97      -0.1241
      2  CA         3.3740   86.2380   36.2890 C.3    97  PHE97       0.1605
      3  C          1.9830   86.8400   36.0840 C.2    97  PHE97       0.2264
      4  O          1.7290   87.9270   36.5580 O.2    97  PHE97      -0.2867
      5  CB         4.2300   86.4800   35.0210 C.3    97  PHE97       0.0534
      6  CG         5.6390   85.9370   35.0930 C.ar   97  PHE97      -0.0203
      7  CD1        6.3170   85.8120   36.3050 C.ar   97  PHE97      -0.0042
      8  CD2        6.3120   85.5860   33.9230 C.ar   97  PHE97      -0.0042
      9  CE1        7.6310   85.2730   36.3530 C.ar   97  PHE97      -0.0003
     10  CE2        7.6320   85.0870   33.9630 C.ar   97  PHE97      -0.0003
     11  CZ         8.2860   84.9250   35.1860 C.ar   97  PHE97      -0.0000
     12  N          3.2170   96.5470   33.9780 N.3   121  PHE121     -0.1241
     13  CA         3.7970   95.2460   34.1910 C.3   121  PHE121      0.1605
     14  C          3.4840   94.2910   33.0040 C.2   121  PHE121      0.2264
     15  O          4.3150   93.4780   32.6260 O.2   121  PHE121     -0.2867
     16  CB         3.2960   94.6510   35.5400 C.3   121  PHE121      0.0534
     17  CG         3.8620   93.2510   35.8540 C.ar  121  PHE121     -0.0203
     18  CD1        5.2000   92.9600   35.6600 C.ar  121  PHE121     -0.0042
     19  CD2        3.0460   92.2460   36.3400 C.ar  121  PHE121     -0.0042
     20  CE1        5.7210   91.7120   35.9440 C.ar  121  PHE121     -0.0003
     21  CE2        3.5650   90.9740   36.6130 C.ar  121  PHE121     -0.0003
     22  CZ         4.9150   90.7140   36.4160 C.ar  121  PHE121     -0.0000
     23  N          6.1380   93.9020   30.3560 N.3   124  ALA124     -0.1231
     24  CA         7.2500   92.9710   30.6410 C.3   124  ALA124      0.1694
     25  C          6.8790   91.5190   30.3150 C.2   124  ALA124      0.2591
     26  O          7.6420   90.7840   29.6770 O.2   124  ALA124     -0.2718
     27  CB         7.7410   93.0890   32.1200 C.3   124  ALA124      0.0304
     28  N          5.7140   91.1050   30.7840 N.am  125  ILE125     -0.1980
     29  CA         5.1950   89.7520   30.5200 C.3   125  ILE125      0.1595
     30  C          5.1600   89.4220   29.0120 C.2   125  ILE125      0.2287
     31  O          5.4610   88.3200   28.5700 O.2   125  ILE125     -0.2864
     32  CB         3.7640   89.6010   31.1220 C.3   125  ILE125      0.0276
     33  CG1        3.8200   89.6400   32.6510 C.3   125  ILE125      0.0022
     34  CG2        3.1330   88.3080   30.6570 C.3   125  ILE125      0.0022
     35  CD1        2.4480   89.5960   33.3500 C.3   125  ILE125      0.0001
     36  N          7.1240   90.7260   26.7150 N.3   127  ALA127     -0.1231
     37  CA         8.4650   90.5950   26.2090 C.3   127  ALA127      0.1694
     38  C          8.9540   89.1630   26.4650 C.2   127  ALA127      0.2592
     39  O          9.4960   88.5140   25.5610 O.2   127  ALA127     -0.2718
     40  CB         9.3710   91.6090   26.8550 C.3   127  ALA127      0.0304
     41  N          8.7120   88.6570   27.6780 N.am  128  TYR128     -0.1976
     42  CA         8.9830   87.2480   28.0190 C.3   128  TYR128      0.1639
     43  C          8.2740   86.2980   27.0370 C.2   128  TYR128      0.2290
     44  O          8.9080   85.3920   26.4580 O.2   128  TYR128     -0.2864
     45  CB         8.5970   86.9630   29.4970 C.3   128  TYR128      0.0560
     46  CG         8.6580   85.5150   29.9190 C.ar  128  TYR128     -0.0198
     47  CD1        9.8860   84.8920   30.1850 C.ar  128  TYR128     -0.0009
     48  CD2        7.4960   84.7590   30.0400 C.ar  128  TYR128     -0.0009
     49  CE1        9.9490   83.5590   30.5520 C.ar  128  TYR128      0.0417
     50  CE2        7.5480   83.4240   30.3960 C.ar  128  TYR128      0.0417
     51  CZ         8.7750   82.8140   30.6520 C.ar  128  TYR128      0.1957
     52  OH         8.8300   81.4650   30.9930 O.3   128  TYR128     -0.2866
     53  N          7.1620   86.7600   24.0110 N.3   130  THR130     -0.1203
     54  CA         7.7240   86.8720   22.6700 C.3   130  THR130      0.1994
     55  C          8.9160   85.8950   22.4940 C.2   130  THR130      0.2617
     56  O          8.9600   85.1280   21.5270 O.2   130  THR130     -0.2717
     57  CB         8.1710   88.3400   22.4100 C.3   130  THR130      0.1784
     58  OG1        7.0200   89.2180   22.3480 O.3   130  THR130     -0.2211
     59  CG2        8.8820   88.4640   21.0420 C.3   130  THR130      0.0376
     60  N          9.8340   85.8930   23.4620 N.am  131  LEU131     -0.1979
     61  CA        10.9940   85.0200   23.4230 C.3   131  LEU131      0.1596
     62  C         10.6980   83.5170   23.5970 C.2   131  LEU131      0.2287
     63  O         11.3320   82.6730   22.9100 O.2   131  LEU131     -0.2864
     64  CB        12.0330   85.4770   24.4630 C.3   131  LEU131      0.0297
     65  CG        12.6100   86.8800   24.2400 C.3   131  LEU131      0.0022
     66  CD1       13.5190   87.3030   25.3860 C.3   131  LEU131      0.0001
     67  CD2       13.3840   86.9800   22.9460 C.3   131  LEU131      0.0001
     68  N         15.1120   80.4460   24.8340 N.3   146  PHE146     -0.1241
     69  CA        16.2960   80.5000   25.6840 C.3   146  PHE146      0.1605
     70  C         16.2240   79.5520   26.8760 C.2   146  PHE146      0.2264
     71  O         15.1380   79.2670   27.3800 O.2   146  PHE146     -0.2867
     72  CB        16.6230   81.9280   26.1190 C.3   146  PHE146      0.0534
     73  CG        15.6470   82.5580   27.0940 C.ar  146  PHE146     -0.0203
     74  CD1       14.5490   83.2500   26.6450 C.ar  146  PHE146     -0.0042
     75  CD2       15.9250   82.5760   28.4550 C.ar  146  PHE146     -0.0042
     76  CE1       13.6700   83.8830   27.5560 C.ar  146  PHE146     -0.0003
     77  CE2       15.0730   83.2050   29.3730 C.ar  146  PHE146     -0.0003
     78  CZ        13.9380   83.8530   28.9180 C.ar  146  PHE146     -0.0000
     79  N         23.1420   82.1100   25.0090 N.3   156  TRP156     -0.1227
     80  CA        22.0770   82.1310   24.0190 C.3   156  TRP156      0.1737
     81  C         21.9680   83.5130   23.3710 C.2   156  TRP156      0.2595
     82  O         21.7240   83.6220   22.1680 O.2   156  TRP156     -0.2718
     83  CB        20.7430   81.7240   24.6480 C.3   156  TRP156      0.0564
     84  CG        19.5640   81.8020   23.7270 C.ar  156  TRP156      0.0003
     85  CD1       19.0480   80.8060   22.9940 C.ar  156  TRP156      0.0946
     86  CD2       18.7300   82.9490   23.4860 C.ar  156  TRP156      0.0152
     87  NE1       17.9570   81.2470   22.2720 N.ar  156  TRP156     -0.2442
     88  CE2       17.7370   82.5600   22.5610 C.ar  156  TRP156      0.0810
     89  CE3       18.7120   84.2630   23.9680 C.ar  156  TRP156      0.0012
     90  CZ2       16.7330   83.4280   22.1250 C.ar  156  TRP156      0.0191
     91  CZ3       17.7470   85.1350   23.5100 C.ar  156  TRP156      0.0001
     92  CH2       16.7720   84.7220   22.5980 C.ar  156  TRP156      0.0015
     93  N         22.1600   84.5630   24.1640 N.am  157  VAL157     -0.1966
     94  CA        22.0390   85.9380   23.6430 C.3   157  VAL157      0.1727
     95  C         23.1580   86.1800   22.6260 C.2   157  VAL157      0.2616
     96  O         22.9430   86.7230   21.5310 O.2   157  VAL157     -0.2715
     97  CB        22.1060   87.0100   24.7800 C.3   157  VAL157      0.0290
     98  CG1       22.2270   88.4240   24.2110 C.3   157  VAL157      0.0023
     99  CG2       20.8750   86.8850   25.6660 C.3   157  VAL157      0.0023
    100  N         24.3410   85.7260   22.9930 N.am  158  SER158     -0.1950
    101  CA        25.5170   85.8640   22.1420 C.3   158  SER158      0.1924
    102  C         25.4660   85.0500   20.8180 C.2   158  SER158      0.2314
    103  O         25.7010   85.5840   19.7340 O.2   158  SER158     -0.2863
    104  CB        26.7290   85.4730   22.9590 C.3   158  SER158      0.2116
    105  OG        27.8420   86.0780   22.4010 O.3   158  SER158     -0.2180
    106  N         22.6990   83.8020   19.4050 N.3   160  THR160     -0.1203
    107  CA        21.5580   84.2510   18.6190 C.3   160  THR160      0.1994
    108  C         21.8780   85.5470   17.8480 C.2   160  THR160      0.2618
    109  O         21.5990   85.6760   16.6690 O.2   160  THR160     -0.2717
    110  CB        20.3250   84.4230   19.5330 C.3   160  THR160      0.1784
    111  OG1       19.9290   83.1410   20.0610 O.3   160  THR160     -0.2211
    112  CG2       19.0860   84.9070   18.7250 C.3   160  THR160      0.0376
    113  N         22.5110   86.4890   18.5090 N.am  161  GLY161     -0.1942
    114  CA        22.9410   87.7080   17.8440 C.3   161  GLY161      0.2014
    115  C         23.8890   87.4630   16.6870 C.2   161  GLY161      0.2638
    116  O         23.6260   87.9110   15.5630 O.2   161  GLY161     -0.2714
    117  N         24.9870   86.7430   16.9530 N.am  162  TYR162     -0.1973
    118  CA        26.0280   86.5000   15.9290 C.3   162  TYR162      0.1639
    119  C         25.5630   85.5830   14.7840 C.2   162  TYR162      0.2290
    120  O         26.1900   85.5750   13.7710 O.2   162  TYR162     -0.2864
    121  CB        27.3570   86.0220   16.5380 C.3   162  TYR162      0.0560
    122  CG        28.1480   87.1210   17.2540 C.ar  162  TYR162     -0.0198
    123  CD1       28.6900   88.2040   16.5370 C.ar  162  TYR162     -0.0009
    124  CD2       28.3600   87.0770   18.6320 C.ar  162  TYR162     -0.0009
    125  CE1       29.4240   89.2290   17.1780 C.ar  162  TYR162      0.0417
    126  CE2       29.1060   88.1060   19.3000 C.ar  162  TYR162      0.0417
    127  CZ        29.6350   89.1740   18.5600 C.ar  162  TYR162      0.1957
    128  OH        30.3590   90.1760   19.1940 O.3   162  TYR162     -0.2866
    129  N         26.7970   91.2750   13.1000 N.3   166  ASN166     -0.1225
    130  CA        26.7080   92.2600   14.1760 C.3   166  ASN166      0.1785
    131  C         25.2440   92.7210   14.2970 C.2   166  ASN166      0.2597
    132  O         24.7160   93.4040   13.3850 O.2   166  ASN166     -0.2718
    133  CB        27.6430   93.4790   13.9700 C.3   166  ASN166      0.1169
    134  CG        27.5620   94.4650   15.1400 C.2   166  ASN166      0.2627
    135  OD1       26.7570   94.2400   16.0520 O.2   166  ASN166     -0.2716
    136  ND2       28.3770   95.5550   15.1350 N.am  166  ASN166     -0.0877
    137  N         24.6170   92.3600   15.4240 N.am  167  PHE167     -0.1962
    138  CA        23.1900   92.6160   15.6980 C.3   167  PHE167      0.1771
    139  C         22.8600   94.1010   15.8760 C.2   167  PHE167      0.2619
    140  O         21.6700   94.4840   15.8230 O.2   167  PHE167     -0.2715
    141  CB        22.7330   91.8630   16.9650 C.3   167  PHE167      0.0574
    142  CG        21.2660   91.4650   16.9540 C.ar  167  PHE167     -0.0200
    143  CD1       20.8120   90.4650   16.1160 C.ar  167  PHE167     -0.0042
    144  CD2       20.3450   92.0850   17.7930 C.ar  167  PHE167     -0.0042
    145  CE1       19.4580   90.0940   16.1110 C.ar  167  PHE167     -0.0003
    146  CE2       18.9820   91.7170   17.7890 C.ar  167  PHE167     -0.0003
    147  CZ        18.5490   90.7330   16.9400 C.ar  167  PHE167     -0.0000
    148  N         23.8850   94.9250   16.1100 N.am  168  HIS168     -0.1973
    149  CA        23.7260   96.3900   16.1220 C.3   168  HIS168      0.1656
    150  C         22.9620   96.9040   14.8860 C.2   168  HIS168      0.2291
    151  O         22.3090   97.9260   14.9490 O.2   168  HIS168     -0.2864
    152  CB        25.0960   97.0810   16.1340 C.3   168  HIS168      0.0771
    153  CG        25.7990   97.0330   17.4510 C.ar  168  HIS168      0.0820
    154  ND1       27.1770   97.0310   17.5540 N.ar  168  HIS168     -0.2267
    155  CD2       25.3240   97.0040   18.7220 C.ar  168  HIS168      0.1154
    156  CE1       27.5180   97.0070   18.8330 C.ar  168  HIS168      0.1986
    157  NE2       26.4110   96.9780   19.5620 N.ar  168  HIS168     -0.2212
    158  N         16.2110   97.4710   16.8240 N.3   173  HIS173     -0.1241
    159  CA        17.1290   97.3130   17.9880 C.3   173  HIS173      0.1621
    160  C         17.7980   98.6790   18.2680 C.2   173  HIS173      0.2264
    161  O         18.0130   99.0460   19.4150 O.2   173  HIS173     -0.2867
    162  CB        18.1550   96.1930   17.6470 C.3   173  HIS173      0.0745
    163  CG        19.1380   95.8440   18.7260 C.ar  173  HIS173      0.0817
    164  ND1       20.3850   96.4370   18.8220 N.ar  173  HIS173     -0.2268
    165  CD2       19.1070   94.8850   19.6880 C.ar  173  HIS173      0.1154
    166  CE1       21.0630   95.8820   19.8160 C.ar  173  HIS173      0.1986
    167  NE2       20.3100   94.9420   20.3670 N.ar  173  HIS173     -0.2212
    168  N         15.0280  100.7850   20.0780 N.3   176  ALA176     -0.1231
    169  CA        14.9110  100.2700   21.4440 C.3   176  ALA176      0.1694
    170  C         16.0220  100.7700   22.3850 C.2   176  ALA176      0.2591
    171  O         15.7530  101.1430   23.5110 O.2   176  ALA176     -0.2718
    172  CB        14.9050   98.7540   21.4250 C.3   176  ALA176      0.0304
    173  N         17.2740  100.7560   21.9220 N.am  177  ILE177     -0.1980
    174  CA        18.4230  101.2590   22.7060 C.3   177  ILE177      0.1595
    175  C         18.2870  102.7680   23.0270 C.2   177  ILE177      0.2287
    176  O         18.5780  103.1860   24.1510 O.2   177  ILE177     -0.2864
    177  CB        19.7500  100.9230   21.9660 C.3   177  ILE177      0.0276
    178  CG1       20.0510   99.4210   22.0960 C.3   177  ILE177      0.0022
    179  CG2       20.9600  101.6950   22.5260 C.3   177  ILE177      0.0022
    180  CD1       21.2260   98.9180   21.2130 C.3   177  ILE177      0.0001
    181  N         15.9570  103.1190   25.9340 N.3   180  PHE180     -0.1227
    182  CA        16.6360  102.7250   27.1900 C.3   180  PHE180      0.1736
    183  C         17.6090  103.7970   27.7200 C.2   180  PHE180      0.2595
    184  O         17.5900  104.0980   28.9200 O.2   180  PHE180     -0.2718
    185  CB        17.4150  101.3780   27.1040 C.3   180  PHE180      0.0547
    186  CG        16.5680  100.1610   27.3490 C.ar  180  PHE180     -0.0202
    187  CD1       16.1490   99.8290   28.6420 C.ar  180  PHE180     -0.0042
    188  CD2       16.1810   99.3370   26.2890 C.ar  180  PHE180     -0.0042
    189  CE1       15.3350   98.6790   28.8670 C.ar  180  PHE180     -0.0003
    190  CE2       15.3640   98.2050   26.5020 C.ar  180  PHE180     -0.0003
    191  CZ        14.9340   97.8790   27.7930 C.ar  180  PHE180     -0.0000
    192  N         18.4800  104.3160   26.8520 N.am  181  PHE181     -0.1976
    193  CA        19.4280  105.3560   27.2450 C.3   181  PHE181      0.1639
    194  C         18.6650  106.6750   27.6240 C.2   181  PHE181      0.2290
    195  O         19.0480  107.3790   28.5710 O.2   181  PHE181     -0.2864
    196  CB        20.4040  105.6900   26.0940 C.3   181  PHE181      0.0560
    197  CG        21.4270  104.6260   25.7720 C.ar  181  PHE181     -0.0200
    198  CD1       21.6600  103.5110   26.6010 C.ar  181  PHE181     -0.0042
    199  CD2       22.2280  104.7700   24.6360 C.ar  181  PHE181     -0.0042
    200  CE1       22.6500  102.5620   26.2880 C.ar  181  PHE181     -0.0003
    201  CE2       23.2300  103.8160   24.3210 C.ar  181  PHE181     -0.0003
    202  CZ        23.4480  102.7150   25.1730 C.ar  181  PHE181     -0.0000
    203  N         10.6530   98.6330   25.8470 N.3   241  VAL241     -0.1245
    204  CA        10.2310   97.2420   25.8400 C.3   241  VAL241      0.1561
    205  C          9.3740   96.8960   24.6200 C.2   241  VAL241      0.2260
    206  O          9.4780   95.7700   24.0960 O.2   241  VAL241     -0.2867
    207  CB         9.5640   96.8840   27.1980 C.3   241  VAL241      0.0252
    208  CG1        8.9660   95.4700   27.2200 C.3   241  VAL241      0.0019
    209  CG2       10.6220   96.9880   28.2970 C.3   241  VAL241      0.0019
    210  N         11.9130   96.4130   21.7920 N.3   244  SER244     -0.1202
    211  CA        12.6970   95.1870   22.0710 C.3   244  SER244      0.2020
    212  C         11.9420   93.9480   21.5770 C.2   244  SER244      0.2618
    213  O         12.4660   93.1500   20.8160 O.2   244  SER244     -0.2717
    214  CB        12.9520   95.0400   23.5830 C.3   244  SER244      0.2103
    215  OG        13.7250   96.1090   24.1160 O.3   244  SER244     -0.2182
    216  N         10.6850   93.7940   21.9900 N.am  245  ALA245     -0.1979
    217  CA         9.8750   92.6760   21.4800 C.3   245  ALA245      0.1597
    218  C          9.7490   92.6680   19.9570 C.2   245  ALA245      0.2287
    219  O          9.7890   91.6010   19.3060 O.2   245  ALA245     -0.2864
    220  CB         8.4800   92.6590   22.1240 C.3   245  ALA245      0.0319
    221  N         11.8680   93.9630   17.7090 N.3   247  CYS247     -0.1221
    222  CA        13.1510   93.7050   17.0730 C.3   247  CYS247      0.1808
    223  C         13.4890   92.2110   17.0460 C.2   247  CYS247      0.2601
    224  O         14.1820   91.7600   16.1110 O.2   247  CYS247     -0.2717
    225  CB        14.2980   94.5480   17.6830 C.3   247  CYS247      0.0970
    226  SG        15.3100   93.7600   18.9840 S.3   247  CYS247     -0.0800
    227  N         12.9540   91.4440   18.0050 N.am  248  MET248     -0.1979
    228  CA        13.0700   89.9720   17.9920 C.3   248  MET248      0.1605
    229  C         11.9530   89.2130   17.2430 C.2   248  MET248      0.2287
    230  O         12.2090   88.1770   16.6550 O.2   248  MET248     -0.2864
    231  CB        13.2210   89.4230   19.4010 C.3   248  MET248      0.0413
    232  CG        14.5020   89.8370   20.1180 C.3   248  MET248      0.0598
    233  SD        16.0440   89.3370   19.3430 S.3   248  MET248     -0.1393
    234  CE        15.9880   87.5580   19.4670 C.3   248  MET248      0.0692
@<TRIPOS>BOND
     1   129   130    1
     2   132   131    2
     3   120   119    2
     4   133   130    1
     5   133   134    1
     6   130   131    1
     7   131   137   am
     8   119   118    1
     9   150   151    2
    10   150   149    1
    11   136   134   am
    12   134   135    2
    13   137   138    1
    14   116   115    2
    15   138   139    1
    16   138   141    1
    17   140   139    2
    18   139   148   am
    19   118   121    1
    20   118   117    1
    21   148   149    1
    22   145   143   ar
    23   145   147   ar
    24   224   223    2
    25   143   142   ar
    26   149   152    1
    27   152   153    1
    28   123   125   ar
    29   123   122   ar
    30   121   122    1
    31   230   229    2
    32   109   108    2
    33   115   117   am
    34   115   114    1
    35   158   159    1
    36   147   146   ar
    37   142   141    1
    38   142   144   ar
    39   223   222    1
    40   223   227   am
    41   222   225    1
    42   222   221    1
    43   125   127   ar
    44   229   228    1
    45   122   124   ar
    46   153   154   ar
    47   153   155   ar
    48   154   156   ar
    49   162   159    1
    50   162   163    1
    51   225   226    1
    52   146   144   ar
    53   114   113    1
    54   108   113   am
    55   108   107    1
    56   159   160    1
    57   228   227    1
    58   228   231    1
    59   160   161    2
    60   127   128    1
    61   127   126   ar
    62   107   106    1
    63   107   110    1
    64   124   126   ar
    65   155   157   ar
    66   112   110    1
    67   163   164   ar
    68   163   165   ar
    69   164   166   ar
    70   156   157   ar
    71   219   218    2
    72   233   234    1
    73   233   232    1
    74   231   232    1
    75   110   111    1
    76   165   167   ar
    77   103   102    2
    78   166   167   ar
    79   218   217    1
    80   168   169    1
    81   213   212    2
    82   102   101    1
    83    59    57    1
    84   180   178    1
    85   172   169    1
    86   169   170    1
    87   217   216    1
    88   217   220    1
    89    56    55    2
    90    96    95    2
    91   212   216   am
    92   212   211    1
    93   210   211    1
    94   173   170   am
    95   173   174    1
    96   177   178    1
    97   177   179    1
    98   177   174    1
    99   211   214    1
   100    90    88   ar
   101    90    92   ar
   102   101   104    1
   103   101   100    1
   104    82    81    2
   105    87    88   ar
   106    87    85   ar
   107    58    57    1
   108   170   171    2
   109   105   104    1
   110    57    54    1
   111    55    54    1
   112    55    60   am
   113    88    86   ar
   114    92    91   ar
   115    95   100   am
   116    95    94    1
   117    54    53    1
   118   174   175    1
   119    63    62    2
   120    67    65    1
   121    85    84   ar
   122   175   176    2
   123    81    80    1
   124    81    93   am
   125    61    60    1
   126    61    62    1
   127    61    64    1
   128    86    84   ar
   129    86    89   ar
   130    91    89   ar
   131   214   215    1
   132    94    93    1
   133    94    97    1
   134    84    83    1
   135    80    83    1
   136    80    79    1
   137   206   205    2
   138    98    97    1
   139    65    64    1
   140    65    66    1
   141   201   199   ar
   142   201   202   ar
   143   205   204    1
   144   199   197   ar
   145    97    99    1
   146    68    69    1
   147   202   200   ar
   148    39    38    2
   149    69    72    1
   150    69    70    1
   151   197   196    1
   152   197   198   ar
   153   204   203    1
   154   204   207    1
   155   181   182    1
   156   196   193    1
   157    72    73    1
   158    37    38    1
   159    37    36    1
   160    37    40    1
   161   200   198   ar
   162   188   190   ar
   163   188   186   ar
   164    44    43    2
   165    38    41   am
   166   190   191   ar
   167    74    73   ar
   168    74    76   ar
   169   192   193    1
   170   192   183   am
   171    70    71    2
   172    43    42    1
   173    73    75   ar
   174   185   182    1
   175   185   186    1
   176   182   183    1
   177   207   208    1
   178   207   209    1
   179   193   194    1
   180   186   187   ar
   181    76    78   ar
   182   194   195    2
   183    41    42    1
   184   183   184    2
   185   191   189   ar
   186    42    45    1
   187    75    77   ar
   188    31    30    2
   189   187   189   ar
   190    78    77   ar
   191    30    29    1
   192    45    46    1
   193    26    25    2
   194    46    48   ar
   195    46    47   ar
   196    48    50   ar
   197    47    49   ar
   198    25    24    1
   199    25    28   am
   200    23    24    1
   201    50    51   ar
   202    29    28    1
   203    29    32    1
   204    49    51   ar
   205    24    27    1
   206    51    52    1
   207    34    32    1
   208    32    33    1
   209    15    14    2
   210    33    35    1
   211    14    13    1
   212     8    10   ar
   213     8     6   ar
   214    10    11   ar
   215    12    13    1
   216    13    16    1
   217     5     6    1
   218     5     2    1
   219     6     7   ar
   220    11     9   ar
   221    16    17    1
   222    18    17   ar
   223    18    20   ar
   224    17    19   ar
   225    20    22   ar
   226     3     2    1
   227     3     4    2
   228     2     1    1
   229     7     9   ar
   230    19    21   ar
   231    22    21   ar
