@<TRIPOS>MOLECULE
tmp/1rg9A01.pdb
 83 76 0 0 0
SMALL
GASTEIGER

@<TRIPOS>ATOM
      1  N         -7.2970   20.2000   11.9660 N.3    40  ALA40      -0.1245
      2  CA        -6.7320   19.1320   11.1350 C.3    40  ALA40       0.1562
      3  C         -7.7400   18.9920   10.0100 C.2    40  ALA40       0.2260
      4  O         -8.5900   18.0980   10.0280 O.2    40  ALA40      -0.2867
      5  CB        -6.6500   17.8280   11.9320 C.3    40  ALA40       0.0290
      6  N        -10.8490   16.8140   11.4970 N.3    55  GLU55      -0.1245
      7  CA       -11.2430   17.0830   12.8690 C.3    55  GLU55       0.1567
      8  C        -10.8240   18.4690   13.2820 C.2    55  GLU55       0.2260
      9  O         -9.6640   18.8410   13.1270 O.2    55  GLU55      -0.2867
     10  CB       -10.6400   16.0460   13.8140 C.3    55  GLU55       0.0388
     11  CG        -9.2910   15.5290   13.3840 C.3    55  GLU55       0.1160
     12  CD        -9.3570   14.5190   12.2530 C.2    55  GLU55       0.3649
     13  OE1      -10.4190   13.9070   12.0250 O.co2  55  GLU55      -0.2457
     14  OE2       -8.3190   14.3480   11.5910 O.co2  55  GLU55      -0.2457
     15  N        -11.5020   16.9960   17.3540 N.3    98  GLN98      -0.1231
     16  CA       -10.2780   16.2620   17.6590 C.3    98  GLN98       0.1698
     17  C        -10.4730   15.2830   18.8270 C.2    98  GLN98       0.2592
     18  O        -11.0920   15.5890   19.8540 O.2    98  GLN98      -0.2718
     19  CB        -9.1460   17.2300   17.9970 C.3    98  GLN98       0.0381
     20  CG        -7.8690   16.5410   18.4540 C.3    98  GLN98       0.0905
     21  CD        -6.8900   17.5020   19.1170 C.2    98  GLN98       0.2608
     22  OE1       -7.1360   18.0090   20.2180 O.2    98  GLN98      -0.2717
     23  NE2       -5.7770   17.7580   18.4450 N.am   98  GLN98      -0.0878
     24  N         -9.9310   14.0940   18.6610 N.am   99  SER99      -0.1952
     25  CA       -10.0280   13.0780   19.6730 C.3    99  SER99       0.1924
     26  C         -9.3600   13.5390   20.9670 C.2    99  SER99       0.2314
     27  O         -8.2190   14.0120   20.9650 O.2    99  SER99      -0.2863
     28  CB        -9.3720   11.7900   19.1600 C.3    99  SER99       0.2116
     29  OG        -8.6530   11.1420   20.1900 O.3    99  SER99      -0.2180
     30  N         -8.2580   11.7500   23.2270 N.3   101  ASP101     -0.1225
     31  CA        -7.1450   10.8360   23.4790 C.3   101  ASP101      0.1805
     32  C         -5.8280   11.4170   22.9890 C.2   101  ASP101      0.2597
     33  O         -4.7800   11.1930   23.5810 O.2   101  ASP101     -0.2718
     34  CB        -7.3810    9.4960   22.7860 C.3   101  ASP101      0.1424
     35  CG        -8.2690    8.5730   23.5940 C.2   101  ASP101      0.3668
     36  OD1       -8.8590    9.0420   24.5920 O.co2 101  ASP101     -0.2456
     37  OD2       -8.3770    7.3790   23.2270 O.co2 101  ASP101     -0.2456
     38  N         -5.8860   12.1410   21.8820 N.am  102  ILE102     -0.1980
     39  CA        -4.6980   12.7720   21.3370 C.3   102  ILE102      0.1595
     40  C         -4.4470   14.0150   22.1840 C.2   102  ILE102      0.2287
     41  O         -3.3440   14.2460   22.6830 O.2   102  ILE102     -0.2864
     42  CB        -4.9170   13.2150   19.8500 C.3   102  ILE102      0.0276
     43  CG1       -5.0450   11.9910   18.9360 C.3   102  ILE102      0.0022
     44  CG2       -3.7560   14.0880   19.3760 C.3   102  ILE102      0.0022
     45  CD1       -5.1320   12.3520   17.4610 C.3   102  ILE102      0.0001
     46  N          2.0680   17.0980   18.3760 N.3   117  GLY117     -0.1210
     47  CA         0.7770   16.6790   17.8770 C.3   117  GLY117      0.1956
     48  C          0.7520   15.2800   17.3180 C.2   117  GLY117      0.2612
     49  O         -0.3160   14.6720   17.2030 O.2   117  GLY117     -0.2717
     50  N          1.9270   14.7710   16.9640 N.am  118  ASP118     -0.1959
     51  CA         2.0450   13.4230   16.4110 C.3   118  ASP118      0.1840
     52  C          3.5050   12.9910   16.3810 C.2   118  ASP118      0.2621
     53  O          4.4020   13.7690   16.7030 O.2   118  ASP118     -0.2715
     54  CB         1.4880   13.3990   14.9850 C.3   118  ASP118      0.1450
     55  CG         1.2120   12.0040   14.5010 C.2   118  ASP118      0.3671
     56  OD1        1.3870   11.0770   15.3140 O.co2 118  ASP118     -0.2456
     57  OD2        0.8180   11.8210   13.3270 O.co2 118  ASP118     -0.2456
     58  N          3.7410   11.7420   15.9990 N.am  119  GLN119     -0.1977
     59  CA         5.1020   11.2390   15.8730 C.3   119  GLN119      0.1601
     60  C          5.5250   11.5500   14.4310 C.2   119  GLN119      0.2287
     61  O          4.6850   11.8390   13.5830 O.2   119  GLN119     -0.2864
     62  CB         5.1350    9.7220   16.1050 C.3   119  GLN119      0.0394
     63  CG         4.6900    8.8970   14.8980 C.3   119  GLN119      0.0908
     64  CD         4.7260    7.4050   15.1500 C.2   119  GLN119      0.2608
     65  OE1        4.1400    6.9060   16.1190 O.2   119  GLN119     -0.2717
     66  NE2        5.4150    6.6780   14.2780 N.am  119  GLN119     -0.0878
     67  N          0.8800   21.0530   15.2430 N.3   269  LYS269     -0.1245
     68  CA         1.1800   19.9020   14.3910 C.3   269  LYS269      0.1561
     69  C          2.6210   20.0060   13.8870 C.2   269  LYS269      0.2260
     70  O          2.9100   20.7640   12.9490 O.2   269  LYS269     -0.2867
     71  CB         0.2210   19.8510   13.1980 C.3   269  LYS269      0.0271
     72  CG        -1.1370   19.2190   13.5060 C.3   269  LYS269      0.0035
     73  CD        -2.1250   20.2520   14.0670 C.3   269  LYS269      0.0206
     74  CE        -3.5480   19.6820   14.1770 C.3   269  LYS269      0.1093
     75  NZ        -3.8660   19.1320   15.5520 N.3   269  LYS269     -0.1314
     76  N          4.3890   11.5740   19.5810 N.3   302  ILE302     -0.1245
     77  CA         3.1180   12.1190   20.0280 C.3   302  ILE302      0.1561
     78  C          3.0210   12.2780   21.5480 C.2   302  ILE302      0.2260
     79  O          3.3950   11.3810   22.2950 O.2   302  ILE302     -0.2867
     80  CB         1.9700   11.2280   19.5810 C.3   302  ILE302      0.0252
     81  CG1        0.6620   12.0050   19.6860 C.3   302  ILE302      0.0019
     82  CG2        1.9320    9.9510   20.4440 C.3   302  ILE302      0.0019
     83  CD1       -0.4990   11.3240   18.9930 C.3   302  ILE302      0.0001
@<TRIPOS>BOND
     1     3     4    2
     2     3     2    1
     3     2     5    1
     4     2     1    1
     5     6     7    1
     6    14    12   ar
     7    13    12   ar
     8    12    11    1
     9     7     8    1
    10     7    10    1
    11    70    69    2
    12     9     8    2
    13    71    72    1
    14    71    68    1
    15    57    55   ar
    16    11    10    1
    17    72    73    1
    18    61    60    2
    19    69    68    1
    20    73    74    1
    21    74    75    1
    22    66    64   am
    23    68    67    1
    24    60    59    1
    25    55    54    1
    26    55    56   ar
    27    63    64    1
    28    63    62    1
    29    54    51    1
    30    64    65    2
    31    59    58    1
    32    59    62    1
    33    58    52   am
    34    52    51    1
    35    52    53    2
    36    51    50    1
    37    50    48   am
    38    49    48    2
    39    48    47    1
    40    15    16    1
    41    45    43    1
    42    16    19    1
    43    16    17    1
    44    47    46    1
    45    19    20    1
    46    23    21   am
    47    20    21    1
    48    24    17   am
    49    24    25    1
    50    17    18    2
    51    43    42    1
    52    83    81    1
    53    21    22    2
    54    28    25    1
    55    28    29    1
    56    44    42    1
    57    80    81    1
    58    80    77    1
    59    80    82    1
    60    76    77    1
    61    25    26    1
    62    42    39    1
    63    77    78    1
    64    27    26    2
    65    39    38    1
    66    39    40    1
    67    78    79    2
    68    38    32   am
    69    40    41    2
    70    34    31    1
    71    34    35    1
    72    32    31    1
    73    32    33    2
    74    37    35   ar
    75    30    31    1
    76    35    36   ar
