@<TRIPOS>MOLECULE
tmp/1rg9A00.pdb
 113 110 0 0 0
SMALL
GASTEIGER

@<TRIPOS>ATOM
      1  N         -4.1830   24.1290   -9.9080 N.3    14  HIS14      -0.1227
      2  CA        -4.0680   22.6730   -9.8800 C.3    14  HIS14       0.1737
      3  C         -4.9750   22.0780   -8.7730 C.2    14  HIS14       0.2438
      4  O         -4.9860   22.5650   -7.6350 O.2    14  HIS14      -0.2733
      5  CB        -2.6010   22.3070   -9.6340 C.3    14  HIS14       0.0758
      6  CG        -2.3230   20.8390   -9.6630 C.ar   14  HIS14       0.0818
      7  ND1       -2.5100   20.0240   -8.5660 N.ar   14  HIS14      -0.2268
      8  CD2       -1.8410   20.0440  -10.6470 C.ar   14  HIS14       0.1154
      9  CE1       -2.1530   18.7920   -8.8740 C.ar   14  HIS14       0.1986
     10  NE2       -1.7430   18.7760  -10.1300 N.ar   14  HIS14      -0.2212
     11  N         -5.7460   21.0150   -9.0970 N.am   15  PRO15      -0.2729
     12  CA        -6.6570   20.3510   -8.1410 C.3    15  PRO15       0.1401
     13  C         -6.0800   20.1630   -6.7350 C.2    15  PRO15       0.2269
     14  O         -6.6970   20.5560   -5.7450 O.2    15  PRO15      -0.2865
     15  CB        -6.9660   19.0210   -8.8070 C.3    15  PRO15       0.0296
     16  CG        -6.8410   19.3100  -10.2670 C.3    15  PRO15       0.0237
     17  CD        -5.7800   20.3720  -10.4240 C.3    15  PRO15       0.0939
     18  N         -5.7150   25.8510  -14.3170 N.3   163  ASP163     -0.1225
     19  CA        -4.8950   24.6480  -14.2300 C.3   163  ASP163      0.1805
     20  C         -3.6170   24.6740  -15.0630 C.2   163  ASP163      0.2598
     21  O         -3.6600   24.8690  -16.2780 O.2   163  ASP163     -0.2718
     22  CB        -5.7320   23.4230  -14.6210 C.3   163  ASP163      0.1424
     23  CG        -5.1720   22.1210  -14.0580 C.2   163  ASP163      0.3668
     24  OD1       -4.1400   22.1530  -13.3330 O.co2 163  ASP163     -0.2456
     25  OD2       -5.7820   21.0630  -14.3520 O.co2 163  ASP163     -0.2456
     26  N         -2.4850   24.4510  -14.3930 N.am  164  ALA164     -0.1966
     27  CA        -1.1930   24.4260  -15.0600 C.3   164  ALA164      0.1728
     28  C         -0.1040   23.7800  -14.1930 C.2   164  ALA164      0.2616
     29  O         -0.1560   23.8410  -12.9620 O.2   164  ALA164     -0.2715
     30  CB        -0.7900   25.8300  -15.4370 C.3   164  ALA164      0.0334
     31  N          0.8760   23.1650  -14.8560 N.am  165  LYS165     -0.1977
     32  CA         2.0030   22.5040  -14.1910 C.3   165  LYS165      0.1596
     33  C          3.2850   22.8370  -14.9650 C.2   165  LYS165      0.2287
     34  O          3.2600   22.9980  -16.1960 O.2   165  LYS165     -0.2864
     35  CB         1.7990   20.9840  -14.1480 C.3   165  LYS165      0.0298
     36  CG         0.8250   20.5040  -13.0670 C.3   165  LYS165      0.0038
     37  CD         0.5910   18.9900  -13.0980 C.3   165  LYS165      0.0206
     38  CE         1.8900   18.2230  -12.9270 C.3   165  LYS165      0.1093
     39  NZ         1.7560   16.9420  -12.1440 N.3   165  LYS165     -0.1314
     40  N          2.7880   22.9120  -18.9390 N.3   186  SER186     -0.1217
     41  CA         1.4550   22.4890  -19.3420 C.3   186  SER186      0.1889
     42  C          0.4330   23.4190  -18.7190 C.2   186  SER186      0.2288
     43  O          0.4340   23.6030  -17.5050 O.2   186  SER186     -0.2866
     44  CB         1.1900   21.0670  -18.8660 C.3   186  SER186      0.2089
     45  OG         2.0330   20.1520  -19.5260 O.3   186  SER186     -0.2183
     46  N          2.3610   21.5810  -23.5500 N.3   225  ASN225     -0.1226
     47  CA         1.0960   20.8810  -23.7570 C.3   225  ASN225      0.1770
     48  C          1.2290   19.6760  -24.6940 C.2   225  ASN225      0.2439
     49  O          0.4650   19.5210  -25.6480 O.2   225  ASN225     -0.2733
     50  CB         0.0400   21.8520  -24.2650 C.3   225  ASN225      0.1168
     51  CG        -0.4710   22.7520  -23.1680 C.2   225  ASN225      0.2627
     52  OD1        0.1850   22.9020  -22.1250 O.2   225  ASN225     -0.2716
     53  ND2       -1.6410   23.3570  -23.3840 N.am  225  ASN225     -0.0877
     54  N          2.2090   18.8040  -24.4220 N.am  226  PRO226     -0.2718
     55  CA         2.5080   17.5920  -25.1950 C.3   226  PRO226      0.1535
     56  C          1.3590   16.7440  -25.7500 C.2   226  PRO226      0.2599
     57  O          1.3470   16.4350  -26.9360 O.2   226  PRO226     -0.2715
     58  CB         3.4220   16.8010  -24.2700 C.3   226  PRO226      0.0310
     59  CG         4.1250   17.8610  -23.4870 C.3   226  PRO226      0.0237
     60  CD         3.1030   18.9320  -23.2550 C.3   226  PRO226      0.0939
     61  N          0.3980   16.3510  -24.9230 N.am  227  THR227     -0.1951
     62  CA        -0.6890   15.5330  -25.4550 C.3   227  THR227      0.1897
     63  C         -1.2860   16.2370  -26.6620 C.2   227  THR227      0.2313
     64  O         -2.0520   15.6430  -27.4160 O.2   227  THR227     -0.2863
     65  CB        -1.8270   15.2930  -24.4420 C.3   227  THR227      0.1794
     66  OG1       -2.7970   16.3440  -24.5630 O.3   227  THR227     -0.2208
     67  CG2       -1.2860   15.2240  -23.0340 C.3   227  THR227      0.0378
     68  N         -3.3640   18.6300  -26.5130 N.3   229  ARG229     -0.1231
     69  CA        -4.6310   19.2490  -26.1440 C.3   229  ARG229      0.1694
     70  C         -4.9290   19.2110  -24.6390 C.2   229  ARG229      0.2592
     71  O         -5.0300   18.1470  -24.0360 O.2   229  ARG229     -0.2718
     72  CB        -5.7710   18.5870  -26.9080 C.3   229  ARG229      0.0321
     73  CG        -7.1370   18.8820  -26.3360 C.3   229  ARG229      0.0489
     74  CD        -8.1600   19.0480  -27.4370 C.3   229  ARG229      0.2205
     75  NE        -9.5160   19.1160  -26.9080 N.pl3 229  ARG229     -0.0865
     76  CZ       -10.3830   20.0650  -27.2350 C.cat 229  ARG229      0.5346
     77  NH1      -10.0190   21.0110  -28.0880 N.pl3 229  ARG229      0.1354
     78  NH2      -11.6020   20.0770  -26.7070 N.pl3 229  ARG229      0.1354
     79  N         -5.0640   20.3920  -24.0450 N.am  230  PHE230     -0.1976
     80  CA        -5.3630   20.5360  -22.6240 C.3   230  PHE230      0.1639
     81  C         -6.4690   21.6130  -22.4880 C.2   230  PHE230      0.2290
     82  O         -6.1980   22.7620  -22.1090 O.2   230  PHE230     -0.2864
     83  CB        -4.0670   20.9660  -21.9180 C.3   230  PHE230      0.0560
     84  CG        -4.1450   20.9980  -20.4130 C.ar  230  PHE230     -0.0200
     85  CD1       -5.2960   20.6060  -19.7320 C.ar  230  PHE230     -0.0042
     86  CD2       -3.0430   21.4350  -19.6690 C.ar  230  PHE230     -0.0042
     87  CE1       -5.3390   20.6520  -18.3340 C.ar  230  PHE230     -0.0003
     88  CE2       -3.0780   21.4840  -18.2720 C.ar  230  PHE230     -0.0003
     89  CZ        -4.2220   21.0950  -17.6040 C.ar  230  PHE230     -0.0000
     90  N         -9.5700   20.4590  -21.1230 N.3   232  ILE232     -0.1231
     91  CA       -10.2280   19.9070  -19.9530 C.3   232  ILE232      0.1692
     92  C         -9.1910   19.8390  -18.8480 C.2   232  ILE232      0.2592
     93  O         -8.1260   19.2700  -19.0360 O.2   232  ILE232     -0.2718
     94  CB       -10.7470   18.4910  -20.2410 C.3   232  ILE232      0.0266
     95  CG1      -12.0030   18.5710  -21.1100 C.3   232  ILE232      0.0019
     96  CG2      -11.0500   17.7590  -18.9430 C.3   232  ILE232      0.0020
     97  CD1      -12.2860   17.3000  -21.8560 C.3   232  ILE232      0.0001
     98  N         -9.4930   20.4470  -17.7090 N.am  233  GLY233     -0.1957
     99  CA        -8.5700   20.4300  -16.5920 C.3   233  GLY233      0.1869
    100  C         -9.2980   20.5910  -15.2740 C.2   233  GLY233      0.2309
    101  O        -10.5070   20.3470  -15.1780 O.2   233  GLY233     -0.2863
    102  N        -10.5530   17.0890  -14.8480 N.3   237  GLY237     -0.1210
    103  CA        -9.5300   16.2720  -15.4580 C.3   237  GLY237      0.1956
    104  C         -8.6730   15.5360  -14.4450 C.2   237  GLY237      0.2611
    105  O         -8.0150   14.5590  -14.7850 O.2   237  GLY237     -0.2717
    106  N         -8.6740   15.9900  -13.1960 N.am  238  ASP238     -0.1973
    107  CA        -7.8440   15.3570  -12.1730 C.3   238  ASP238      0.1709
    108  C         -8.2820   15.6390  -10.7430 C.2   238  ASP238      0.2293
    109  O         -8.4320   16.8050  -10.3640 O.2   238  ASP238     -0.2864
    110  CB        -6.4200   15.8340  -12.3350 C.3   238  ASP238      0.1436
    111  CG        -5.4480   14.8950  -11.7320 C.2   238  ASP238      0.3671
    112  OD1       -5.6960   13.6850  -11.8510 O.co2 238  ASP238     -0.2456
    113  OD2       -4.4450   15.3580  -11.1410 O.co2 238  ASP238     -0.2456
@<TRIPOS>BOND
     1    77    76    1
     2    74    75    1
     3    74    73    1
     4    64    63    2
     5    76    75    2
     6    76    78    1
     7    57    56    2
     8    72    73    1
     9    72    69    1
    10    63    62    1
    11    68    69    1
    12    69    70    1
    13    56    55    1
    14    56    61   am
    15    49    48    2
    16    62    61    1
    17    62    65    1
    18    55    54    1
    19    55    58    1
    20    48    54   am
    21    48    47    1
    22    70    79   am
    23    70    71    2
    24    66    65    1
    25    65    67    1
    26    54    60    1
    27    58    59    1
    28    50    47    1
    29    50    51    1
    30    79    80    1
    31    47    46    1
    32    59    60    1
    33    53    51   am
    34    51    52    2
    35    80    81    1
    36    80    83    1
    37    81    82    2
    38    83    84    1
    39    97    95    1
    40    90    91    1
    41    95    94    1
    42    84    85   ar
    43    84    86   ar
    44    94    91    1
    45    94    96    1
    46    91    92    1
    47    85    87   ar
    48    86    88   ar
    49    45    44    1
    50    41    40    1
    51    41    44    1
    52    41    42    1
    53    93    92    2
    54    92    98   am
    55    42    43    2
    56    87    89   ar
    57    88    89   ar
    58    98    99    1
    59    99   100    1
    60    21    20    2
    61    34    33    2
    62   103   102    1
    63   103   104    1
    64    30    27    1
    65   100   101    2
    66    20    26   am
    67    20    19    1
    68    27    26    1
    69    27    28    1
    70    33    32    1
    71    31    28   am
    72    31    32    1
    73   105   104    2
    74    22    19    1
    75    22    23    1
    76   104   106   am
    77    25    23   ar
    78    18    19    1
    79    28    29    2
    80    32    35    1
    81    35    36    1
    82    23    24   ar
    83   106   107    1
    84    37    36    1
    85    37    38    1
    86    38    39    1
    87   110   107    1
    88   110   111    1
    89   107   108    1
    90   112   111   ar
    91   111   113   ar
    92   108   109    2
    93     8    10   ar
    94     8     6   ar
    95    17    16    1
    96    17    11    1
    97    16    15    1
    98    10     9   ar
    99     1     2    1
   100     2     5    1
   101     2     3    1
   102     6     5    1
   103     6     7   ar
   104    11     3   am
   105    11    12    1
   106     9     7   ar
   107    15    12    1
   108     3     4    2
   109    12    13    1
   110    13    14    2
