@<TRIPOS>MOLECULE
tmp/1rgaA01.pdb
 91 88 0 0 0
SMALL
GASTEIGER

@<TRIPOS>ATOM
      1  N         28.0410   35.1070   15.8450 N.3    36  ASN36      -0.1240
      2  CA        26.8260   34.5600   16.4700 C.3    36  ASN36       0.1653
      3  C         26.1360   33.5690   15.5550 C.2    36  ASN36       0.2266
      4  O         25.0040   33.1210   15.8280 O.2    36  ASN36      -0.2867
      5  CB        26.0540   35.7460   17.0470 C.3    36  ASN36       0.1155
      6  CG        26.7740   36.1290   18.3320 C.2    36  ASN36       0.2627
      7  OD1       26.3820   35.5850   19.3680 O.2    36  ASN36      -0.2716
      8  ND2       27.7700   36.9660   18.4030 N.am   36  ASN36      -0.0877
      9  N         24.8750   33.3540   12.1630 N.3    38  TYR38      -0.1241
     10  CA        23.5330   33.5880   11.6030 C.3    38  TYR38       0.1605
     11  C         23.5140   33.0150   10.1880 C.2    38  TYR38       0.2264
     12  O         24.5490   33.0150    9.4640 O.2    38  TYR38      -0.2867
     13  CB        23.1850   35.0740   11.4290 C.3    38  TYR38       0.0534
     14  CG        22.9830   35.7310   12.7790 C.ar   38  TYR38      -0.0201
     15  CD1       21.7290   35.6420   13.3570 C.ar   38  TYR38      -0.0009
     16  CD2       24.0160   36.4500   13.3560 C.ar   38  TYR38      -0.0009
     17  CE1       21.4910   36.2450   14.6030 C.ar   38  TYR38       0.0417
     18  CE2       23.7980   37.0660   14.6170 C.ar   38  TYR38       0.0417
     19  CZ        22.5620   36.8840   15.1820 C.ar   38  TYR38       0.1957
     20  OH        22.2670   37.4610   16.3790 O.3    38  TYR38      -0.2866
     21  N         28.8240   43.3370   13.9540 N.3    72  SER72      -0.1203
     22  CA        27.6080   43.5470   14.7760 C.3    72  SER72       0.2005
     23  C         26.3010   43.3960   13.9770 C.2    72  SER72       0.2461
     24  O         26.1090   44.0540   12.9280 O.2    72  SER72      -0.2732
     25  CB        27.6590   44.9080   15.4360 C.3    72  SER72       0.2103
     26  OG        26.4410   45.1240   16.1460 O.3    72  SER72      -0.2182
     27  N         25.4140   42.5530   14.4770 N.am   73  PRO73      -0.2717
     28  CA        24.1300   42.4200   13.7340 C.3    73  PRO73       0.1536
     29  C         23.0880   43.4990   14.1030 C.2    73  PRO73       0.2599
     30  O         21.9580   43.4230   13.5400 O.2    73  PRO73      -0.2715
     31  CB        23.6710   41.0520   14.3020 C.3    73  PRO73       0.0310
     32  CG        24.1420   41.1350   15.7130 C.3    73  PRO73       0.0237
     33  CD        25.5680   41.7160   15.6590 C.3    73  PRO73       0.0939
     34  N         23.3630   44.4030   15.0810 N.am   74  GLY74      -0.1941
     35  CA        22.3390   45.3750   15.4250 C.3    74  GLY74       0.2014
     36  C         21.2050   44.6980   16.1710 C.2    74  GLY74       0.2635
     37  O         21.3910   43.5910   16.6550 O.2    74  GLY74      -0.2714
     38  N         20.0810   45.4490   16.2880 N.am   75  ALA75      -0.2030
     39  CA        19.0050   44.8920   17.0540 C.3    75  ALA75       0.1283
     40  C         17.9330   44.2150   16.2530 C.3    75  ALA75       0.2036
     41  O         17.1120   43.6020   16.9400 O.3    75  ALA75      -0.2185
     42  CB        18.3230   46.2100   17.6180 C.3    75  ALA75       0.0262
     43  N         15.8320   41.8380   13.3740 N.3    77  ARG77      -0.1245
     44  CA        16.0280   40.5980   12.6550 C.3    77  ARG77       0.1563
     45  C         14.8020   40.2140   11.8280 C.2    77  ARG77       0.2260
     46  O         13.7180   40.6980   12.1720 O.2    77  ARG77      -0.2867
     47  CB        15.9930   39.4790   13.7530 C.3    77  ARG77       0.0307
     48  CG        17.0160   39.5130   14.8920 C.3    77  ARG77       0.0489
     49  CD        18.3660   39.2220   14.2980 C.3    77  ARG77       0.2205
     50  NE        19.2950   39.3200   15.4530 N.pl3  77  ARG77      -0.0865
     51  CZ        19.9600   40.4520   15.8060 C.cat  77  ARG77       0.5346
     52  NH1       19.9680   41.5870   15.1470 N.pl3  77  ARG77       0.1354
     53  NH2       20.6680   40.4290   16.9240 N.pl3  77  ARG77       0.1354
     54  N         15.4310   43.7940   19.2390 N.3    92  HIS92      -0.1226
     55  CA        15.7430   43.8620   20.6560 C.3    92  HIS92       0.1752
     56  C         15.4570   45.2930   21.1160 C.2    92  HIS92       0.2597
     57  O         15.4760   45.5540   22.3400 O.2    92  HIS92      -0.2718
     58  CB        17.2760   43.8180   20.7520 C.3    92  HIS92       0.0759
     59  CG        17.7200   42.3900   20.6830 C.ar   92  HIS92       0.0818
     60  ND1       17.3020   41.3370   21.4670 N.ar   92  HIS92      -0.2268
     61  CD2       18.6890   41.8930   19.8680 C.ar   92  HIS92       0.1154
     62  CE1       17.9920   40.2550   21.1080 C.ar   92  HIS92       0.1986
     63  NE2       18.7790   40.5840   20.1090 N.ar   92  HIS92      -0.2212
     64  N         15.2600   46.3250   20.2450 N.am   93  THR93      -0.1939
     65  CA        15.0310   47.7000   20.7410 C.3    93  THR93       0.2028
     66  C         13.6910   47.7820   21.4960 C.2    93  THR93       0.2643
     67  O         12.7040   47.3050   20.8580 O.2    93  THR93      -0.2714
     68  CB        15.0750   48.6930   19.4540 C.3    93  THR93       0.1808
     69  OG1       16.3380   48.4930   18.8110 O.3    93  THR93      -0.2208
     70  CG2       14.5420   50.0990   19.9020 C.3    93  THR93       0.0379
     71  N         13.7930   48.3900   22.6570 N.am   94  GLY94      -0.1939
     72  CA        12.5170   48.5260   23.4370 C.3    94  GLY94       0.2014
     73  C         12.1580   47.2170   24.1200 C.2    94  GLY94       0.2635
     74  O         10.9800   47.1260   24.5440 O.2    94  GLY94      -0.2714
     75  N         13.0420   46.2370   24.2050 N.am   95  ALA95      -0.2030
     76  CA        12.8210   44.9380   24.8770 C.3    95  ALA95       0.1283
     77  C         13.9020   44.8160   25.9630 C.3    95  ALA95       0.2036
     78  O         15.0130   45.2340   25.6320 O.3    95  ALA95      -0.2185
     79  CB        12.9620   43.7360   23.9200 C.3    95  ALA95       0.0262
     80  N         17.0440   43.5100   28.0130 N.3    97  GLY97      -0.1210
     81  CA        18.1400   42.5640   27.7930 C.3    97  GLY97       0.1956
     82  C         18.1540   42.0530   26.3400 C.2    97  GLY97       0.2611
     83  O         18.0820   42.9150   25.4170 O.2    97  GLY97      -0.2717
     84  N         18.2680   40.7610   26.2800 N.am   98  ASN98      -0.1974
     85  CA        18.3170   40.1450   24.9030 C.3    98  ASN98       0.1688
     86  C         16.9930   39.5970   24.4120 C.2    98  ASN98       0.2292
     87  O         16.8050   38.7410   23.5280 O.2    98  ASN98      -0.2864
     88  CB        19.5220   39.1630   24.8720 C.3    98  ASN98       0.1181
     89  CG        20.8220   39.9420   24.8270 C.2    98  ASN98       0.2629
     90  OD1       21.2000   40.8730   24.0810 O.2    98  ASN98      -0.2716
     91  ND2       21.8040   39.5590   25.6890 N.am   98  ASN98      -0.0877
@<TRIPOS>BOND
     1    12    11    2
     2    11    10    1
     3    13    10    1
     4    13    14    1
     5    10     9    1
     6    45    46    2
     7    45    44    1
     8    44    43    1
     9    44    47    1
    10    14    16   ar
    11    14    15   ar
    12    24    23    2
    13    16    18   ar
    14    15    17   ar
    15    30    29    2
    16    28    29    1
    17    28    31    1
    18    28    27    1
    19    47    48    1
    20    21    22    1
    21    23    27   am
    22    23    22    1
    23    29    34   am
    24    49    48    1
    25    49    50    1
    26    31    32    1
    27    27    33    1
    28    17    19   ar
    29    18    19   ar
    30    22    25    1
    31    34    35    1
    32    52    51    1
    33    19    20    1
    34    35    36    1
    35    25    26    1
    36    50    51    2
    37     3     4    2
    38     3     2    1
    39    33    32    1
    40    51    53    1
    41     1     2    1
    42    36    38   am
    43    36    37    2
    44    40    41    1
    45    40    39    1
    46    38    39    1
    47     2     5    1
    48     5     6    1
    49    39    42    1
    50     6     8   am
    51     6     7    2
    52    69    68    1
    53    54    55    1
    54    68    70    1
    55    68    65    1
    56    61    63   ar
    57    61    59   ar
    58    63    62   ar
    59    64    65    1
    60    64    56   am
    61    55    58    1
    62    55    56    1
    63    59    58    1
    64    59    60   ar
    65    65    66    1
    66    67    66    2
    67    62    60   ar
    68    56    57    2
    69    66    71   am
    70    71    72    1
    71    72    73    1
    72    87    86    2
    73    79    76    1
    74    90    89    2
    75    73    75   am
    76    73    74    2
    77    75    76    1
    78    86    85    1
    79    89    88    1
    80    89    91   am
    81    88    85    1
    82    76    77    1
    83    85    84    1
    84    83    82    2
    85    78    77    1
    86    84    82   am
    87    82    81    1
    88    81    80    1
