@<TRIPOS>MOLECULE
tmp/1rgbC00.pdb
 119 119 0 0 0
SMALL
GASTEIGER

@<TRIPOS>ATOM
      1  N         29.2910   46.6440   54.2870 N.3     2  LEU2       -0.1245
      2  CA        29.8280   45.3930   54.7770 C.3     2  LEU2        0.1561
      3  C         30.1650   44.5370   53.5970 C.2     2  LEU2        0.2260
      4  O         30.9580   43.6130   53.7030 O.2     2  LEU2       -0.2867
      5  CB        28.7980   44.7290   55.6650 C.3     2  LEU2        0.0270
      6  CG        27.9300   45.7720   56.3760 C.3     2  LEU2        0.0019
      7  CD1       26.9760   45.0640   57.3040 C.3     2  LEU2        0.0001
      8  CD2       28.7990   46.7580   57.1510 C.3     2  LEU2        0.0001
      9  N         33.5130   45.4320   52.9080 N.3     5  PHE5       -0.1241
     10  CA        34.2540   44.9650   54.0560 C.3     5  PHE5        0.1605
     11  C         34.5730   43.4750   54.0450 C.2     5  PHE5        0.2264
     12  O         35.6560   43.0520   54.4340 O.2     5  PHE5       -0.2867
     13  CB        33.4780   45.3140   55.3060 C.3     5  PHE5        0.0534
     14  CG        34.2660   45.1630   56.5490 C.ar    5  PHE5       -0.0203
     15  CD1       35.6050   44.8000   56.4930 C.ar    5  PHE5       -0.0042
     16  CD2       33.6820   45.4010   57.7830 C.ar    5  PHE5       -0.0042
     17  CE1       36.3650   44.6740   57.6420 C.ar    5  PHE5       -0.0003
     18  CE2       34.4300   45.2790   58.9550 C.ar    5  PHE5       -0.0003
     19  CZ        35.7800   44.9140   58.8820 C.ar    5  PHE5       -0.0000
     20  N         33.7120   35.7490   61.6040 N.3    21  TYR21      -0.1227
     21  CA        33.3320   37.0120   62.2130 C.3    21  TYR21       0.1736
     22  C         31.8600   37.3560   62.1700 C.2    21  TYR21       0.2595
     23  O         31.4640   38.4170   62.6380 O.2    21  TYR21      -0.2718
     24  CB        34.1210   38.1300   61.5530 C.3    21  TYR21       0.0548
     25  CG        35.6130   38.0020   61.7440 C.ar   21  TYR21      -0.0200
     26  CD1       36.2320   38.5470   62.8650 C.ar   21  TYR21      -0.0009
     27  CD2       36.4100   37.3250   60.8100 C.ar   21  TYR21      -0.0009
     28  CE1       37.6150   38.4300   63.0650 C.ar   21  TYR21       0.0417
     29  CE2       37.8010   37.1970   60.9990 C.ar   21  TYR21       0.0417
     30  CZ        38.3980   37.7580   62.1360 C.ar   21  TYR21       0.1957
     31  OH        39.7650   37.6690   62.3640 O.3    21  TYR21      -0.2866
     32  N         31.0480   36.4810   61.5960 N.am   22  ILE22      -0.1980
     33  CA        29.6150   36.7370   61.5590 C.3    22  ILE22       0.1595
     34  C         29.2140   37.0370   62.9980 C.2    22  ILE22       0.2287
     35  O         28.3340   37.8510   63.2610 O.2    22  ILE22      -0.2864
     36  CB        28.8250   35.5090   61.0800 C.3    22  ILE22       0.0276
     37  CG1       29.1200   34.3020   61.9740 C.3    22  ILE22       0.0022
     38  CG2       29.1700   35.2110   59.6570 C.3    22  ILE22       0.0022
     39  CD1       28.3680   33.0510   61.5740 C.3    22  ILE22       0.0001
     40  N         31.9690   42.5010   70.5500 N.3    27  TYR27      -0.1227
     41  CA        31.6740   43.5080   69.5390 C.3    27  TYR27       0.1736
     42  C         31.7150   43.0440   68.0980 C.2    27  TYR27       0.2596
     43  O         31.1840   43.7080   67.2110 O.2    27  TYR27      -0.2718
     44  CB        32.5990   44.7020   69.7280 C.3    27  TYR27       0.0548
     45  CG        32.4110   45.3600   71.0620 C.ar   27  TYR27      -0.0200
     46  CD1       33.0720   44.8940   72.1890 C.ar   27  TYR27      -0.0009
     47  CD2       31.5560   46.4370   71.2000 C.ar   27  TYR27      -0.0009
     48  CE1       32.8890   45.4960   73.4290 C.ar   27  TYR27       0.0417
     49  CE2       31.3630   47.0440   72.4290 C.ar   27  TYR27       0.0417
     50  CZ        32.0310   46.5730   73.5430 C.ar   27  TYR27       0.1957
     51  OH        31.8390   47.1880   74.7610 O.3    27  TYR27      -0.2866
     52  N         32.3500   41.9150   67.8530 N.am   28  CYS28      -0.1956
     53  CA        32.3820   41.4290   66.5030 C.3    28  CYS28       0.1843
     54  C         31.0180   40.8680   66.1860 C.2    28  CYS28       0.2626
     55  O         30.2570   40.5150   67.0900 O.2    28  CYS28      -0.2714
     56  CB        33.4420   40.3740   66.3610 C.3    28  CYS28       0.0997
     57  SG        35.0810   41.0820   66.6690 S.3    28  CYS28      -0.0797
     58  N         30.7030   40.7920   64.8990 N.am   29  GLY29      -0.1940
     59  CA        29.4070   40.2900   64.4940 C.3    29  GLY29       0.2014
     60  C         28.3070   41.1850   65.0290 C.2    29  GLY29       0.2638
     61  O         28.3410   42.4070   64.8780 O.2    29  GLY29      -0.2714
     62  N         27.3260   40.5630   65.6640 N.am   30  TRP30      -0.1973
     63  CA        26.2030   41.2810   66.2370 C.3    30  TRP30       0.1640
     64  C         26.5200   41.5350   67.6960 C.2    30  TRP30       0.2290
     65  O         27.2060   40.7300   68.3260 O.2    30  TRP30      -0.2864
     66  CB        24.9260   40.4360   66.1240 C.3    30  TRP30       0.0576
     67  CG        24.5040   40.1440   64.7000 C.ar   30  TRP30       0.0006
     68  CD1       25.2600   39.5610   63.7220 C.ar   30  TRP30       0.0946
     69  CD2       23.2370   40.4500   64.0960 C.ar   30  TRP30       0.0152
     70  NE1       24.5480   39.4900   62.5470 N.ar   30  TRP30      -0.2442
     71  CE2       23.3030   40.0300   62.7460 C.ar   30  TRP30       0.0810
     72  CE3       22.0520   41.0460   64.5650 C.ar   30  TRP30       0.0012
     73  CZ2       22.2330   40.1790   61.8560 C.ar   30  TRP30       0.0191
     74  CZ3       20.9810   41.1980   63.6760 C.ar   30  TRP30       0.0001
     75  CH2       21.0830   40.7670   62.3380 C.ar   30  TRP30       0.0015
     76  N         37.0570   44.9050   66.1560 N.3    44  CYS44      -0.1235
     77  CA        35.6960   45.3110   65.8970 C.3    44  CYS44       0.1677
     78  C         35.4230   46.5860   66.6780 C.2    44  CYS44       0.2270
     79  O         35.1330   47.6290   66.1050 O.2    44  CYS44      -0.2867
     80  CB        34.7610   44.1650   66.3170 C.3    44  CYS44       0.0956
     81  SG        35.2010   42.6570   65.3920 S.3    44  CYS44      -0.0801
     82  N         36.9420   49.3100   65.3740 N.3    47  HIS47      -0.1226
     83  CA        36.2630   49.4840   64.0980 C.3    47  HIS47       0.1752
     84  C         35.0310   50.2770   64.4450 C.2    47  HIS47       0.2596
     85  O         34.8260   51.3860   63.9700 O.2    47  HIS47      -0.2718
     86  CB        35.8820   48.1100   63.5510 C.3    47  HIS47       0.0759
     87  CG        35.0370   48.1460   62.3190 C.ar   47  HIS47       0.0818
     88  ND1       35.5650   48.2820   61.0540 N.ar   47  HIS47      -0.2268
     89  CD2       33.6980   48.0450   62.1590 C.ar   47  HIS47       0.1154
     90  CE1       34.5880   48.2640   60.1670 C.ar   47  HIS47       0.1986
     91  NE2       33.4440   48.1210   60.8110 N.ar   47  HIS47      -0.2212
     92  N         34.2340   49.6930   65.3220 N.am   48  ASP48      -0.1974
     93  CA        33.0110   50.3120   65.7910 C.3    48  ASP48       0.1709
     94  C         33.1820   51.8030   66.1020 C.2    48  ASP48       0.2293
     95  O         32.2950   52.6060   65.8080 O.2    48  ASP48      -0.2864
     96  CB        32.5100   49.5730   67.0340 C.3    48  ASP48       0.1436
     97  CG        31.8650   48.2390   66.7050 C.2    48  ASP48       0.3671
     98  OD1       30.6890   48.2220   66.2860 O.co2  48  ASP48      -0.2456
     99  OD2       32.5360   47.2040   66.8600 O.co2  48  ASP48      -0.2456
    100  N         27.2400   51.2660   56.5990 N.3    60  LYS60      -0.1245
    101  CA        26.4900   50.1790   56.0140 C.3    60  LYS60       0.1561
    102  C         26.0960   50.4990   54.5810 C.2    60  LYS60       0.2260
    103  O         26.3370   49.6930   53.6880 O.2    60  LYS60      -0.2867
    104  CB        25.2350   49.8940   56.8380 C.3    60  LYS60       0.0271
    105  CG        24.3020   48.8830   56.1920 C.3    60  LYS60       0.0035
    106  CD        24.8530   47.4700   56.2050 C.3    60  LYS60       0.0206
    107  CE        23.9390   46.5250   56.9910 C.3    60  LYS60       0.1093
    108  NZ        23.9300   46.7640   58.4690 N.3    60  LYS60      -0.1314
    109  N         42.3550   42.8300   62.3250 N.3    96  PHE96      -0.1241
    110  CA        41.9810   41.4410   62.4610 C.3    96  PHE96       0.1605
    111  C         43.0940   40.4760   62.1900 C.2    96  PHE96       0.2264
    112  O         43.4790   39.7110   63.0680 O.2    96  PHE96      -0.2867
    113  CB        40.8430   41.0980   61.5200 C.3    96  PHE96       0.0534
    114  CG        39.5020   41.5240   62.0190 C.ar   96  PHE96      -0.0203
    115  CD1       39.1540   41.3470   63.3610 C.ar   96  PHE96      -0.0042
    116  CD2       38.5650   42.0700   61.1500 C.ar   96  PHE96      -0.0042
    117  CE1       37.8870   41.7100   63.8290 C.ar   96  PHE96      -0.0003
    118  CE2       37.2970   42.4340   61.6080 C.ar   96  PHE96      -0.0003
    119  CZ        36.9600   42.2530   62.9490 C.ar   96  PHE96      -0.0000
@<TRIPOS>BOND
     1     9    10    1
     2     3     4    2
     3     3     2    1
     4   103   102    2
     5    11    10    1
     6    11    12    2
     7    10    13    1
     8     1     2    1
     9   102   101    1
    10     2     5    1
    11    13    14    1
    12     5     6    1
    13   101   100    1
    14   101   104    1
    15   105   106    1
    16   105   104    1
    17   106   107    1
    18     6     8    1
    19     6     7    1
    20    15    14   ar
    21    15    17   ar
    22    14    16   ar
    23   107   108    1
    24    17    19   ar
    25    16    18   ar
    26    19    18   ar
    27    38    36    1
    28    90    91   ar
    29    90    88   ar
    30    27    29   ar
    31    27    25   ar
    32    91    89   ar
    33    29    30   ar
    34    88    87   ar
    35    36    33    1
    36    36    37    1
    37   116   118   ar
    38   116   114   ar
    39   113   114    1
    40   113   110    1
    41    24    25    1
    42    24    21    1
    43    33    32    1
    44    33    34    1
    45    39    37    1
    46    32    22   am
    47    20    21    1
    48   118   119   ar
    49    25    26   ar
    50    73    75   ar
    51    73    71   ar
    52   114   115   ar
    53    30    31    1
    54    30    28   ar
    55    89    87   ar
    56    22    21    1
    57    22    23    2
    58   111   110    1
    59   111   112    2
    60    87    86    1
    61   109   110    1
    62    75    74   ar
    63    70    71   ar
    64    70    68   ar
    65    71    69   ar
    66    26    28   ar
    67   119   117   ar
    68    34    35    2
    69   115   117   ar
    70    86    83    1
    71    74    72   ar
    72    68    67   ar
    73    85    84    2
    74    69    72   ar
    75    69    67   ar
    76    83    84    1
    77    83    82    1
    78    84    92   am
    79    59    58    1
    80    59    60    1
    81    67    66    1
    82    61    60    2
    83    58    54   am
    84    60    62   am
    85    92    93    1
    86    81    80    1
    87    81    57    1
    88    62    63    1
    89    93    94    1
    90    93    96    1
    91    95    94    2
    92    77    76    1
    93    77    80    1
    94    77    78    1
    95    79    78    2
    96    66    63    1
    97    54    53    1
    98    54    55    2
    99    63    64    1
   100    98    97   ar
   101    56    53    1
   102    56    57    1
   103    53    52    1
   104    97    99   ar
   105    97    96    1
   106    43    42    2
   107    64    65    2
   108    52    42   am
   109    42    41    1
   110    41    44    1
   111    41    40    1
   112    44    45    1
   113    45    47   ar
   114    45    46   ar
   115    47    49   ar
   116    46    48   ar
   117    49    50   ar
   118    48    50   ar
   119    50    51    1
