@<TRIPOS>MOLECULE
tmp/1rgqB00.pdb
 161 156 0 0 0
SMALL
GASTEIGER

@<TRIPOS>ATOM
      1  N         11.8540   10.8850  -15.1540 N.3    44  GLN44      -0.1231
      2  CA        12.1850   12.2990  -14.9790 C.3    44  GLN44       0.1698
      3  C         11.2050   13.2270  -15.6800 C.2    44  GLN44       0.2593
      4  O         10.8190   12.9810  -16.8200 O.2    44  GLN44      -0.2718
      5  CB        13.5600   12.5850  -15.5640 C.3    44  GLN44       0.0381
      6  CG        14.6730   11.7000  -15.0890 C.3    44  GLN44       0.0905
      7  CD        15.8640   11.7940  -15.9870 C.2    44  GLN44       0.2608
      8  OE1       15.7490   11.6650  -17.2110 O.2    44  GLN44      -0.2717
      9  NE2       17.0280   12.0340  -15.3920 N.am   44  GLN44      -0.0878
     10  N         10.8620   14.3280  -15.0200 N.am   45  THR45      -0.1939
     11  CA         9.9540   15.3140  -15.5960 C.3    45  THR45       0.2028
     12  C         10.5730   16.7190  -15.6790 C.2    45  THR45       0.2642
     13  O         11.1800   17.2030  -14.7240 O.2    45  THR45      -0.2714
     14  CB         8.5750   15.3130  -14.8970 C.3    45  THR45       0.1808
     15  OG1        7.8020   16.4190  -15.3690 O.3    45  THR45      -0.2208
     16  CG2        8.7170   15.3730  -13.3840 C.3    45  THR45       0.0379
     17  N         10.4680   17.3200  -16.8660 N.am   46  PHE46      -0.1973
     18  CA        11.0200   18.6480  -17.1680 C.3    46  PHE46       0.1639
     19  C         10.2000   19.4800  -18.1830 C.2    46  PHE46       0.2290
     20  O          8.9990   19.2410  -18.3610 O.2    46  PHE46      -0.2864
     21  CB        12.5320   18.5560  -17.5490 C.3    46  PHE46       0.0560
     22  CG        12.8570   17.5410  -18.6300 C.ar   46  PHE46      -0.0200
     23  CD1       13.1690   17.9670  -19.9310 C.ar   46  PHE46      -0.0042
     24  CD2       12.8040   16.1550  -18.3650 C.ar   46  PHE46      -0.0042
     25  CE1       13.4120   17.0340  -20.9650 C.ar   46  PHE46      -0.0003
     26  CE2       13.0410   15.2090  -19.3830 C.ar   46  PHE46      -0.0003
     27  CZ        13.3410   15.6550  -20.6920 C.ar   46  PHE46      -0.0000
     28  N         20.5070   16.6090  -21.3580 N.3    60  HIS60      -0.1226
     29  CA        20.6810   15.8610  -20.1090 C.3    60  HIS60       0.1752
     30  C         19.3890   15.2410  -19.5750 C.2    60  HIS60       0.2596
     31  O         19.4170   14.4010  -18.6720 O.2    60  HIS60      -0.2718
     32  CB        21.4480   16.6680  -19.0340 C.3    60  HIS60       0.0759
     33  CG        20.7120   17.8490  -18.4690 C.ar   60  HIS60       0.0818
     34  ND1       21.0460   19.1480  -18.7850 N.ar   60  HIS60      -0.2268
     35  CD2       19.7370   17.9330  -17.5330 C.ar   60  HIS60       0.1154
     36  CE1       20.3140   19.9790  -18.0680 C.ar   60  HIS60       0.1986
     37  NE2       19.5100   19.2660  -17.3010 N.ar   60  HIS60      -0.2212
     38  N         18.2750   15.6570  -20.1780 N.am   61  GLY61      -0.1957
     39  CA        16.9640   15.1590  -19.8160 C.3    61  GLY61       0.1869
     40  C         16.4100   14.1750  -20.8280 C.2    61  GLY61       0.2309
     41  O         16.0100   13.0760  -20.4520 O.2    61  GLY61      -0.2863
     42  N         24.3700   21.0820  -25.0610 N.3    84  ASP84      -0.1239
     43  CA        23.2970   20.4870  -24.2440 C.3    84  ASP84       0.1674
     44  C         21.9000   20.7310  -24.8620 C.2    84  ASP84       0.2266
     45  O         20.9170   20.9600  -24.1570 O.2    84  ASP84      -0.2867
     46  CB        23.4040   21.0120  -22.7900 C.3    84  ASP84       0.1410
     47  CG        22.9100   20.0240  -21.7480 C.2    84  ASP84       0.3668
     48  OD1       22.8730   18.8020  -21.9960 O.co2  84  ASP84      -0.2456
     49  OD2       22.5740   20.4920  -20.6470 O.co2  84  ASP84      -0.2456
     50  N         24.8230   33.3330  -18.3310 N.3   126  ARG126     -0.1245
     51  CA        24.6100   33.4720  -16.8790 C.3   126  ARG126      0.1563
     52  C         23.7200   34.6350  -16.4610 C.2   126  ARG126      0.2260
     53  O         23.7360   35.7170  -17.0590 O.2   126  ARG126     -0.2867
     54  CB        25.9350   33.5900  -16.1200 C.3   126  ARG126      0.0307
     55  CG        26.6830   32.2920  -15.8830 C.3   126  ARG126      0.0489
     56  CD        25.9260   31.3460  -14.9690 C.3   126  ARG126      0.2205
     57  NE        26.7730   30.2270  -14.5680 N.pl3 126  ARG126     -0.0865
     58  CZ        27.4840   30.1750  -13.4370 C.cat 126  ARG126      0.5346
     59  NH1       27.4510   31.1790  -12.5510 N.pl3 126  ARG126      0.1354
     60  NH2       28.2920   29.1380  -13.2250 N.pl3 126  ARG126      0.1354
     61  N         16.2930   25.3490   -3.9570 N.3   135  ILE135     -0.1245
     62  CA        16.5840   24.4700   -5.0920 C.3   135  ILE135      0.1561
     63  C         15.4340   23.5610   -5.5810 C.2   135  ILE135      0.2260
     64  O         15.3530   23.2580   -6.7750 O.2   135  ILE135     -0.2867
     65  CB        17.8650   23.6410   -4.8040 C.3   135  ILE135      0.0252
     66  CG1       18.3890   22.9990   -6.0950 C.3   135  ILE135      0.0019
     67  CG2       17.6270   22.6600   -3.6330 C.3   135  ILE135      0.0019
     68  CD1       19.4520   21.9620   -5.8840 C.3   135  ILE135      0.0001
     69  N         13.1330   25.1240   -8.4550 N.3   138  LEU138     -0.1231
     70  CA        13.7040   25.1040   -9.7980 C.3   138  LEU138      0.1693
     71  C         13.7620   23.7280  -10.4630 C.2   138  LEU138      0.2592
     72  O         13.9540   23.6350  -11.6780 O.2   138  LEU138     -0.2718
     73  CB        15.0870   25.7770   -9.8210 C.3   138  LEU138      0.0284
     74  CG        15.2440   27.3030   -9.8900 C.3   138  LEU138      0.0019
     75  CD1       14.2920   27.9050  -10.9140 C.3   138  LEU138      0.0001
     76  CD2       14.9990   27.9200   -8.5410 C.3   138  LEU138      0.0001
     77  N         13.5850   22.6720   -9.6680 N.am  139  LYS139     -0.1966
     78  CA        13.5730   21.2920  -10.1670 C.3   139  LYS139      0.1728
     79  C         12.3430   21.0860  -11.0480 C.2   139  LYS139      0.2617
     80  O         11.2350   21.5570  -10.7240 O.2   139  LYS139     -0.2715
     81  CB        13.5220   20.2950   -9.0150 C.3   139  LYS139      0.0311
     82  CG        14.7810   20.1900   -8.1960 C.3   139  LYS139      0.0038
     83  CD        15.6240   19.0290   -8.6520 C.3   139  LYS139      0.0206
     84  CE        16.8060   18.8280   -7.7560 C.3   139  LYS139      0.1093
     85  NZ        17.6250   20.0560   -7.7540 N.3   139  LYS139     -0.1314
     86  N         12.5710   20.4330  -12.1850 N.am  140  GLY140     -0.1940
     87  CA        11.5160   20.1750  -13.1450 C.3   140  GLY140      0.2014
     88  C         11.2960   21.3110  -14.1320 C.2   140  GLY140      0.2640
     89  O         10.4010   21.2270  -14.9680 O.2   140  GLY140     -0.2714
     90  N         12.1130   22.3600  -14.0530 N.am  141  SER141     -0.1935
     91  CA        11.9720   23.5060  -14.9470 C.3   141  SER141      0.2055
     92  C         13.0100   23.6460  -16.0660 C.2   141  SER141      0.2643
     93  O         12.9970   24.6190  -16.8200 O.2   141  SER141     -0.2714
     94  CB        11.8590   24.7910  -14.1340 C.3   141  SER141      0.2130
     95  OG        10.6780   24.7690  -13.3620 O.3   141  SER141     -0.2179
     96  N         13.8670   22.6410  -16.2050 N.am  142  SER142     -0.1949
     97  CA        14.9060   22.6230  -17.2320 C.3   142  SER142      0.1924
     98  C         14.3280   22.4580  -18.6240 C.2   142  SER142      0.2314
     99  O         13.5770   21.5280  -18.8860 O.2   142  SER142     -0.2863
    100  CB        15.9130   21.5240  -16.9390 C.3   142  SER142      0.2116
    101  OG        15.3450   20.2320  -16.9210 O.3   142  SER142     -0.2180
    102  N         16.4560   27.5250  -19.8790 N.3   157  PHE157     -0.1227
    103  CA        17.0080   27.1510  -18.5620 C.3   157  PHE157      0.1736
    104  C         17.7020   25.7750  -18.5480 C.2   157  PHE157      0.2595
    105  O         17.0960   24.7510  -18.8540 O.2   157  PHE157     -0.2718
    106  CB        15.8860   27.2300  -17.5050 C.3   157  PHE157      0.0547
    107  CG        16.3280   26.9440  -16.0850 C.ar  157  PHE157     -0.0202
    108  CD1       17.4160   27.6140  -15.5010 C.ar  157  PHE157     -0.0042
    109  CD2       15.6380   25.9960  -15.3210 C.ar  157  PHE157     -0.0042
    110  CE1       17.8040   27.3330  -14.1740 C.ar  157  PHE157     -0.0003
    111  CE2       16.0180   25.7050  -13.9850 C.ar  157  PHE157     -0.0003
    112  CZ        17.1040   26.3760  -13.4130 C.ar  157  PHE157     -0.0000
    113  N         18.9750   25.7850  -18.1590 N.am  158  ARG158     -0.1966
    114  CA        19.8030   24.5830  -18.1120 C.3   158  ARG158      0.1729
    115  C         20.1810   24.1040  -16.6960 C.2   158  ARG158      0.2616
    116  O         19.8900   22.9610  -16.3170 O.2   158  ARG158     -0.2715
    117  CB        21.0640   24.8200  -18.9510 C.3   158  ARG158      0.0348
    118  CG        21.9740   23.6310  -19.0880 C.3   158  ARG158      0.0492
    119  CD        23.1240   23.9620  -19.9790 C.3   158  ARG158      0.2205
    120  NE        24.1130   22.8880  -20.0120 N.pl3 158  ARG158     -0.0865
    121  CZ        25.1800   22.8190  -19.2180 C.cat 158  ARG158      0.5346
    122  NH1       25.4080   23.7660  -18.3120 N.pl3 158  ARG158      0.1354
    123  NH2       26.0250   21.8050  -19.3400 N.pl3 158  ARG158      0.1354
    124  N         20.8610   24.9680  -15.9430 N.am  159  ALA159     -0.1963
    125  CA        21.3110   24.6330  -14.5930 C.3   159  ALA159      0.1728
    126  C         21.1890   25.7710  -13.5840 C.2   159  ALA159      0.2616
    127  O         21.0920   26.9390  -13.9490 O.2   159  ALA159     -0.2715
    128  CB        22.7570   24.1390  -14.6400 C.3   159  ALA159      0.0334
    129  N         21.1770   25.4080  -12.3060 N.am  160  ALA160     -0.1963
    130  CA        21.0970   26.3770  -11.2210 C.3   160  ALA160      0.1728
    131  C         22.3740   26.3080  -10.3840 C.2   160  ALA160      0.2616
    132  O         22.9630   25.2270  -10.2210 O.2   160  ALA160     -0.2715
    133  CB        19.8880   26.0930  -10.3580 C.3   160  ALA160      0.0334
    134  N         22.8350   27.4720   -9.9180 N.am  161  VAL161     -0.1963
    135  CA        24.0270   27.5640   -9.0600 C.3   161  VAL161      0.1727
    136  C         23.4840   27.4440   -7.6310 C.2   161  VAL161      0.2616
    137  O         22.8490   28.3710   -7.1140 O.2   161  VAL161     -0.2715
    138  CB        24.7970   28.9160   -9.2430 C.3   161  VAL161      0.0290
    139  CG1       26.0690   28.9430   -8.4000 C.3   161  VAL161      0.0023
    140  CG2       25.1410   29.1410  -10.7060 C.3   161  VAL161      0.0023
    141  N         23.7370   26.2930   -7.0140 N.am  162  CYS162     -0.1954
    142  CA        23.2290   26.0150   -5.6780 C.3   162  CYS162      0.1843
    143  C         24.2560   25.9170   -4.5610 C.2   162  CYS162      0.2626
    144  O         25.1220   25.0320   -4.5520 O.2   162  CYS162     -0.2714
    145  CB        22.3940   24.7380   -5.6970 C.3   162  CYS162      0.0997
    146  SG        21.4960   24.4740   -7.2660 S.3   162  CYS162     -0.0797
    147  N         24.1490   26.8520   -3.6250 N.am  163  THR163     -0.1950
    148  CA        25.0080   26.8920   -2.4500 C.3   163  THR163      0.1897
    149  C         24.0490   26.6690   -1.2720 C.2   163  THR163      0.2313
    150  O         23.0730   27.4190   -1.1140 O.2   163  THR163     -0.2863
    151  CB        25.7800   28.2710   -2.3110 C.3   163  THR163      0.1794
    152  OG1       24.8540   29.3730   -2.3280 O.3   163  THR163     -0.2208
    153  CG2       26.7900   28.4550   -3.4630 C.3   163  THR163      0.0378
    154  N         21.9550   29.2190  -14.9530 N.3   171  ASP171     -0.1239
    155  CA        22.7680   28.9900  -16.1490 C.3   171  ASP171      0.1674
    156  C         21.8280   28.6260  -17.2970 C.2   171  ASP171      0.2266
    157  O         20.9710   27.7550  -17.1390 O.2   171  ASP171     -0.2867
    158  CB        23.7450   27.8380  -15.8920 C.3   171  ASP171      0.1410
    159  CG        24.8720   27.7850  -16.8960 C.2   171  ASP171      0.3668
    160  OD1       24.7450   27.0620  -17.9110 O.co2 171  ASP171     -0.2456
    161  OD2       25.8900   28.4670  -16.6560 O.co2 171  ASP171     -0.2456
@<TRIPOS>BOND
     1    42    43    1
     2    44    43    1
     3    44    45    2
     4    43    46    1
     5    46    47    1
     6    48    47   ar
     7    47    49   ar
     8    28    29    1
     9    25    27   ar
    10    25    23   ar
    11    40    41    2
    12    40    39    1
    13    27    26   ar
    14    38    39    1
    15    38    30   am
    16    29    30    1
    17    29    32    1
    18   120   119    1
    19   120   121    2
    20   119   118    1
    21    23    22   ar
    22   102   103    1
    23    30    31    2
    24    26    24   ar
    25   123   121    1
    26   121   122    1
    27   118   117    1
    28    32    33    1
    29   117   114    1
    30    99    98    2
    31   105   104    2
    32    34    33   ar
    33    34    36   ar
    34    22    24   ar
    35    22    21    1
    36    98    97    1
    37   103   104    1
    38   103   106    1
    39   104   113   am
    40    33    35   ar
    41    20    19    2
    42    50    51    1
    43    19    18    1
    44   113   114    1
    45   114   115    1
    46    36    37   ar
    47   160   159   ar
    48    21    18    1
    49    35    37   ar
    50   106   107    1
    51   156   157    2
    52   156   155    1
    53    97   100    1
    54    97    96    1
    55     8     7    2
    56    18    17    1
    57    53    52    2
    58   100   101    1
    59   159   161   ar
    60   159   158    1
    61    51    52    1
    62    51    54    1
    63    17    12   am
    64     4     3    2
    65    93    92    2
    66   115   116    2
    67   115   124   am
    68    96    92   am
    69   155   158    1
    70   155   154    1
    71    54    55    1
    72   107   108   ar
    73   107   109   ar
    74    92    91    1
    75     7     9   am
    76     7     6    1
    77   124   125    1
    78    55    56    1
    79     3    10   am
    80     3     2    1
    81    12    11    1
    82    12    13    2
    83    11    10    1
    84    11    14    1
    85     5     6    1
    86     5     2    1
    87   108   110   ar
    88    15    14    1
    89   109   111   ar
    90     1     2    1
    91    56    57    1
    92    89    88    2
    93    91    94    1
    94    91    90    1
    95    14    16    1
    96   128   125    1
    97   125   126    1
    98    57    58    2
    99   110   112   ar
   100    94    95    1
   101    88    90   am
   102    88    87    1
   103   111   112   ar
   104   127   126    2
   105   126   129   am
   106    58    60    1
   107    58    59    1
   108    87    86    1
   109   129   130    1
   110    86    79   am
   111    72    71    2
   112   130   131    1
   113   130   133    1
   114    79    80    2
   115    79    78    1
   116    75    74    1
   117   140   138    1
   118    71    70    1
   119    71    77   am
   120   131   132    2
   121   131   134   am
   122    78    77    1
   123    78    81    1
   124   134   135    1
   125    74    73    1
   126    74    76    1
   127    73    70    1
   128    70    69    1
   129   138   135    1
   130   138   139    1
   131   135   136    1
   132    81    82    1
   133    83    82    1
   134    83    84    1
   135    84    85    1
   136   136   137    2
   137   136   141   am
   138   146   145    1
   139   141   142    1
   140    64    63    2
   141    66    68    1
   142    66    65    1
   143   145   142    1
   144   142   143    1
   145    63    62    1
   146    62    65    1
   147    62    61    1
   148    65    67    1
   149   143   144    2
   150   143   147   am
   151   147   148    1
   152   153   151    1
   153   148   151    1
   154   148   149    1
   155   152   151    1
   156   149   150    2
