@<TRIPOS>MOLECULE
tmp/1rgrA00.pdb
 133 130 0 0 0
SMALL
GASTEIGER

@<TRIPOS>ATOM
      1  N         -4.5640   13.8750   -2.2310 N.3    13  GLY13      -0.1210
      2  CA        -3.4520   12.9760   -1.8840 C.3    13  GLY13       0.1956
      3  C         -3.7590   12.2940   -0.5420 C.2    13  GLY13       0.2612
      4  O         -4.3270   12.8870    0.3830 O.2    13  GLY13      -0.2717
      5  N         -3.3340   11.0310   -0.4430 N.am   14  LEU14      -0.1965
      6  CA        -3.5750   10.1930    0.7520 C.3    14  LEU14       0.1728
      7  C         -2.5860   10.6380    1.8710 C.2    14  LEU14       0.2617
      8  O         -2.9320   11.5040    2.6750 O.2    14  LEU14      -0.2715
      9  CB        -3.4820    8.6710    0.4430 C.3    14  LEU14       0.0311
     10  CG        -4.2900    7.9750   -0.6610 C.3    14  LEU14       0.0022
     11  CD1       -4.0100    8.4160   -2.1090 C.3    14  LEU14       0.0001
     12  CD2       -4.2210    6.4570   -0.4470 C.3    14  LEU14       0.0001
     13  N         -1.3720   10.0680    1.8790 N.am   15  GLY15      -0.1940
     14  CA        -0.4270   10.1390    3.0010 C.3    15  GLY15       0.2014
     15  C          0.3800    8.8590    3.3160 C.2    15  GLY15       0.2639
     16  O          0.6990    8.5990    4.4740 O.2    15  GLY15      -0.2714
     17  N          0.7550    8.1260    2.2710 N.am   16  PHE16      -0.1959
     18  CA         1.6190    6.9260    2.3020 C.3    16  PHE16       0.1771
     19  C          2.6000    7.0870    1.0900 C.2    16  PHE16       0.2620
     20  O          2.5210    8.0100    0.2700 O.2    16  PHE16      -0.2715
     21  CB         0.8370    5.5700    2.1980 C.3    16  PHE16       0.0574
     22  CG        -0.5290    5.3530    2.8760 C.ar   16  PHE16      -0.0200
     23  CD1       -1.6620    6.0530    2.4390 C.ar   16  PHE16      -0.0042
     24  CD2       -0.6750    4.3800    3.8710 C.ar   16  PHE16      -0.0042
     25  CE1       -2.9020    5.8210    3.0250 C.ar   16  PHE16      -0.0003
     26  CE2       -1.9200    4.1270    4.4310 C.ar   16  PHE16      -0.0003
     27  CZ        -3.0260    4.8470    4.0040 C.ar   16  PHE16      -0.0000
     28  N          3.5460    6.1580    0.9560 N.am   17  SER17      -0.1936
     29  CA         4.5100    6.1450   -0.1670 C.3    17  SER17       0.2055
     30  C          4.8720    4.6840   -0.4560 C.2    17  SER17       0.2643
     31  O          5.4220    3.9760    0.3940 O.2    17  SER17      -0.2714
     32  CB         5.7840    6.9150    0.1730 C.3    17  SER17       0.2130
     33  OG         5.5730    8.3070    0.2360 O.3    17  SER17      -0.2179
     34  N          4.5620    4.2610   -1.6830 N.am   18  ILE18      -0.1963
     35  CA         4.6780    2.8490   -2.1000 C.3    18  ILE18       0.1727
     36  C          6.0050    2.5870   -2.8440 C.2    18  ILE18       0.2616
     37  O          6.3220    3.2750   -3.8120 O.2    18  ILE18      -0.2715
     38  CB         3.4350    2.3270   -2.8850 C.3    18  ILE18       0.0290
     39  CG1        3.1120    3.0820   -4.2030 C.3    18  ILE18       0.0022
     40  CG2        2.1890    2.1890   -1.9860 C.3    18  ILE18       0.0023
     41  CD1        2.5030    2.1640   -5.2640 C.3    18  ILE18       0.0001
     42  N          6.7090    1.5160   -2.4530 N.am   19  ALA19      -0.1963
     43  CA         7.6750    0.8390   -3.3440 C.3    19  ALA19       0.1728
     44  C          6.9610   -0.1040   -4.3550 C.2    19  ALA19       0.2616
     45  O          5.7320   -0.1450   -4.5000 O.2    19  ALA19      -0.2715
     46  CB         8.7260    0.1390   -2.4660 C.3    19  ALA19       0.0334
     47  N          7.7970   -0.7760   -5.1440 N.am   20  GLY20      -0.1955
     48  CA         7.4360   -1.1590   -6.5030 C.3    20  GLY20       0.1869
     49  C          6.8360   -2.5650   -6.6860 C.2    20  GLY20       0.2309
     50  O          6.9590   -3.4640   -5.8470 O.2    20  GLY20      -0.2863
     51  N          8.2440   -2.2220  -12.0270 N.3    24  ASN24      -0.1226
     52  CA         9.2620   -1.3540  -11.4030 C.3    24  ASN24       0.1770
     53  C          9.4760   -2.1280  -10.0740 C.2    24  ASN24       0.2439
     54  O          8.7240   -1.8420   -9.1490 O.2    24  ASN24      -0.2733
     55  CB         8.6900    0.1120  -11.3110 C.3    24  ASN24       0.1168
     56  CG         8.9100    0.9830  -10.0500 C.2    24  ASN24       0.2627
     57  OD1        9.6620    0.6660   -9.1350 O.2    24  ASN24      -0.2716
     58  ND2        8.2050    2.0900   -9.9320 N.am   24  ASN24      -0.0877
     59  N         10.3860   -3.1250   -9.9040 N.am   25  PRO25      -0.2718
     60  CA        10.4860   -3.8870   -8.6400 C.3    25  PRO25       0.1535
     61  C         11.6600   -3.3630   -7.7780 C.2    25  PRO25       0.2598
     62  O         12.8030   -3.3050   -8.2450 O.2    25  PRO25      -0.2715
     63  CB        10.6690   -5.3270   -9.1510 C.3    25  PRO25       0.0310
     64  CG        11.2320   -5.2420  -10.5740 C.3    25  PRO25       0.0237
     65  CD        11.0990   -3.7820  -11.0170 C.3    25  PRO25       0.0939
     66  N         11.3960   -3.0940   -6.4850 N.am   26  HIS26      -0.1974
     67  CA        12.4750   -3.1400   -5.4440 C.3    26  HIS26       0.1656
     68  C         13.2140   -4.5310   -5.3010 C.2    26  HIS26       0.2291
     69  O         14.3420   -4.5930   -4.8060 O.2    26  HIS26      -0.2864
     70  CB        11.8640   -2.6410   -4.1000 C.3    26  HIS26       0.0771
     71  CG        12.8830   -2.3770   -2.9850 C.ar   26  HIS26       0.0820
     72  ND1       13.7820   -1.3230   -2.9860 N.ar   26  HIS26      -0.2267
     73  CD2       13.1540   -3.2330   -1.8990 C.ar   26  HIS26       0.1154
     74  CE1       14.5450   -1.6480   -1.8990 C.ar   26  HIS26       0.1986
     75  NE2       14.2410   -2.7700   -1.1760 N.ar   26  HIS26      -0.2212
     76  N          7.1430    1.6590    1.4470 N.3    36  THR36      -0.1203
     77  CA         8.4790    1.9660    2.0640 C.3    36  THR36       0.1994
     78  C          8.4690    3.2350    2.9660 C.2    36  THR36       0.2617
     79  O          9.3350    3.3240    3.8410 O.2    36  THR36      -0.2717
     80  CB         9.5910    2.0290    0.9780 C.3    36  THR36       0.1784
     81  OG1        9.7640    0.7320    0.4300 O.3    36  THR36      -0.2211
     82  CG2       10.9990    2.4970    1.4120 C.3    36  THR36       0.0376
     83  N          7.5600    4.2100    2.7720 N.am   37  LYS37      -0.1979
     84  CA         7.5080    5.4270    3.6080 C.3    37  LYS37       0.1596
     85  C          6.0300    5.7980    3.9400 C.2    37  LYS37       0.2287
     86  O          5.0840    5.5100    3.2130 O.2    37  LYS37      -0.2864
     87  CB         8.3900    6.5160    2.9520 C.3    37  LYS37       0.0298
     88  CG         8.5400    7.7830    3.8010 C.3    37  LYS37       0.0038
     89  CD         9.3920    8.8730    3.1360 C.3    37  LYS37       0.0206
     90  CE         9.6970   10.0680    4.0480 C.3    37  LYS37       0.1093
     91  NZ         8.4710   10.7830    4.4440 N.3    37  LYS37      -0.1314
     92  N          3.8520    9.1940    4.5170 N.3    39  ILE39      -0.1245
     93  CA         3.9120   10.6560    4.2500 C.3    39  ILE39       0.1561
     94  C          3.5160   11.4250    5.5610 C.2    39  ILE39       0.2260
     95  O          2.4020   11.2120    6.0550 O.2    39  ILE39      -0.2867
     96  CB         3.1730   11.0900    2.9420 C.3    39  ILE39       0.0252
     97  CG1        3.8650   10.5990    1.6450 C.3    39  ILE39       0.0019
     98  CG2        2.7920   12.5860    2.8220 C.3    39  ILE39       0.0019
     99  CD1        5.2970   11.0950    1.3970 C.3    39  ILE39       0.0001
    100  N          2.7900   -1.4040   -9.9830 N.3    69  HIS69      -0.1241
    101  CA         2.6200   -0.3670   -8.9090 C.3    69  HIS69       0.1621
    102  C          1.6230    0.7970   -9.2140 C.2    69  HIS69       0.2264
    103  O          0.9850    1.3080   -8.2970 O.2    69  HIS69      -0.2867
    104  CB         4.0020    0.1730   -8.4240 C.3    69  HIS69       0.0745
    105  CG         4.6330    1.3000   -9.2510 C.ar   69  HIS69       0.0817
    106  ND1        5.0700    1.1400  -10.5490 N.ar   69  HIS69      -0.2268
    107  CD2        4.4680    2.6680   -8.9780 C.ar   69  HIS69       0.1154
    108  CE1        5.1000    2.4360  -10.9730 C.ar   69  HIS69       0.1986
    109  NE2        4.7750    3.4250  -10.0970 N.ar   69  HIS69      -0.2212
    110  N         -1.2720    2.0120   -6.6510 N.3    73  VAL73      -0.1245
    111  CA        -1.4290    3.4620   -6.3710 C.3    73  VAL73       0.1561
    112  C         -2.7780    4.0710   -6.8460 C.2    73  VAL73       0.2260
    113  O         -3.4080    4.8040   -6.0810 O.2    73  VAL73      -0.2867
    114  CB        -0.1930    4.2900   -6.8420 C.3    73  VAL73       0.0252
    115  CG1       -0.0720    4.5710   -8.3400 C.3    73  VAL73       0.0019
    116  CG2       -0.1550    5.5790   -6.0390 C.3    73  VAL73       0.0019
    117  N         -5.4830    2.5100   -4.4330 N.3    76  LEU76      -0.1231
    118  CA        -5.3710    3.3510   -3.2070 C.3    76  LEU76       0.1693
    119  C         -6.1310    4.7120   -3.3100 C.2    76  LEU76       0.2595
    120  O         -6.9760    4.9870   -2.4560 O.2    76  LEU76      -0.2718
    121  CB        -3.8600    3.5270   -2.8490 C.3    76  LEU76       0.0284
    122  CG        -3.0830    2.3020   -2.2840 C.3    76  LEU76       0.0019
    123  CD1       -1.5600    2.5370   -2.2840 C.3    76  LEU76       0.0001
    124  CD2       -3.4840    1.9440   -0.8460 C.3    76  LEU76       0.0001
    125  N         -5.8840    5.5390   -4.3450 N.am   77  LYS77      -0.1934
    126  CA        -6.6820    6.7770   -4.6020 C.3    77  LYS77       0.1812
    127  C         -8.1700    6.5930   -5.0570 C.2    77  LYS77       0.2332
    128  O         -9.0390    7.3700   -4.6550 O.2    77  LYS77      -0.2860
    129  CB        -5.8910    7.7750   -5.4870 C.2    77  LYS77      -0.0016
    130  CG        -5.7030    7.3490   -6.9520 C.2    77  LYS77      -0.0270
    131  CD        -4.7310    8.1930   -7.7890 C.3    77  LYS77       0.0462
    132  CE        -3.2550    7.9960   -7.3890 C.3    77  LYS77       0.1140
    133  NZ        -2.3390    8.6540   -8.3300 N.3    77  LYS77      -0.1310
@<TRIPOS>BOND
     1    51    52    1
     2    52    55    1
     3    52    53    1
     4    55    56    1
     5    65    64    1
     6    65    59    1
     7   108   106   ar
     8   108   109   ar
     9    64    63    1
    10   106   105   ar
    11   109   107   ar
    12    53    59   am
    13    53    54    2
    14    56    58   am
    15    56    57    2
    16   100   101    1
    17    59    60    1
    18   105   107   ar
    19   105   104    1
    20   102   101    1
    21   102   103    2
    22    63    60    1
    23   101   104    1
    24    60    61    1
    25   115   114    1
    26   133   132    1
    27    62    61    2
    28   131   132    1
    29   131   130    1
    30    61    66   am
    31   130   129    2
    32   112   111    1
    33   112   113    2
    34   114   111    1
    35   114   116    1
    36    49    48    1
    37    49    50    2
    38   110   111    1
    39    48    47    1
    40    66    67    1
    41   129   126    1
    42    67    68    1
    43    67    70    1
    44    68    69    2
    45    41    39    1
    46    47    44   am
    47   127   128    2
    48   127   126    1
    49   126   125    1
    50    45    44    2
    51   117   118    1
    52    44    43    1
    53   125   119   am
    54    39    38    1
    55    70    71    1
    56    37    36    2
    57    43    46    1
    58    43    42    1
    59   119   118    1
    60   119   120    2
    61   118   121    1
    62    72    71   ar
    63    72    74   ar
    64    71    73   ar
    65    38    35    1
    66    38    40    1
    67   121   122    1
    68    36    42   am
    69    36    35    1
    70   123   122    1
    71   122   124    1
    72     1     2    1
    73    11    10    1
    74    35    34    1
    75    73    75   ar
    76    74    75   ar
    77     2     3    1
    78    34    30   am
    79    10    12    1
    80    10     9    1
    81     3     5   am
    82     3     4    2
    83    30    29    1
    84    30    31    2
    85     5     6    1
    86    29    32    1
    87    29    28    1
    88    32    33    1
    89    20    19    2
    90    81    80    1
    91     9     6    1
    92     6     7    1
    93    28    19   am
    94    80    82    1
    95    80    77    1
    96    19    18    1
    97    99    97    1
    98    76    77    1
    99    97    96    1
   100     7    13   am
   101     7     8    2
   102    13    14    1
   103    77    78    1
   104    21    18    1
   105    21    22    1
   106    17    18    1
   107    17    15   am
   108    23    22   ar
   109    23    25   ar
   110    83    78   am
   111    83    84    1
   112    98    96    1
   113    22    24   ar
   114    96    93    1
   115    87    84    1
   116    87    88    1
   117    78    79    2
   118    14    15    1
   119    25    27   ar
   120    89    88    1
   121    89    90    1
   122    86    85    2
   123    15    16    2
   124    84    85    1
   125    24    26   ar
   126    27    26   ar
   127    90    91    1
   128    93    92    1
   129    93    94    1
   130    94    95    2
