@<TRIPOS>MOLECULE
tmp/1rguC00.pdb
 191 182 0 0 0
SMALL
GASTEIGER

@<TRIPOS>ATOM
      1  N         13.4160   55.2750    2.8460 N.3    43  TYR43      -0.1241
      2  CA        13.5600   54.3740    1.7230 C.3    43  TYR43       0.1605
      3  C         14.0520   55.1620    0.5200 C.2    43  TYR43       0.2264
      4  O         15.1490   54.9360    0.0430 O.2    43  TYR43      -0.2867
      5  CB        12.2070   53.7480    1.3930 C.3    43  TYR43       0.0534
      6  CG        12.2580   52.7040    0.3050 C.ar   43  TYR43      -0.0201
      7  CD1       13.3340   51.8290    0.2050 C.ar   43  TYR43      -0.0009
      8  CD2       11.2280   52.5900   -0.6250 C.ar   43  TYR43      -0.0009
      9  CE1       13.3880   50.8640   -0.8090 C.ar   43  TYR43       0.0417
     10  CE2       11.2690   51.6320   -1.6420 C.ar   43  TYR43       0.0417
     11  CZ        12.3520   50.7730   -1.7220 C.ar   43  TYR43       0.1957
     12  OH        12.3960   49.8170   -2.7090 O.3    43  TYR43      -0.2866
     13  N         15.6680   40.7730   -1.2660 N.3    98  PHE98      -0.1227
     14  CA        14.3270   41.3370   -1.3660 C.3    98  PHE98       0.1736
     15  C         13.9220   42.1670   -0.1500 C.2    98  PHE98       0.2596
     16  O         12.7640   42.5330   -0.0020 O.2    98  PHE98      -0.2718
     17  CB        13.2910   40.2410   -1.6650 C.3    98  PHE98       0.0547
     18  CG        13.2240   39.8730   -3.1210 C.ar   98  PHE98      -0.0202
     19  CD1       13.8760   38.7440   -3.5980 C.ar   98  PHE98      -0.0042
     20  CD2       12.5410   40.6770   -4.0210 C.ar   98  PHE98      -0.0042
     21  CE1       13.8280   38.4120   -4.9500 C.ar   98  PHE98      -0.0003
     22  CE2       12.4890   40.3510   -5.3730 C.ar   98  PHE98      -0.0003
     23  CZ        13.1320   39.2220   -5.8370 C.ar   98  PHE98      -0.0000
     24  N         14.8860   42.4600    0.7100 N.am   99  GLY99      -0.1942
     25  CA        14.6450   43.3290    1.8460 C.3    99  GLY99       0.2014
     26  C         14.8480   44.7810    1.4540 C.2    99  GLY99       0.2639
     27  O         15.5650   45.0800    0.4960 O.2    99  GLY99      -0.2714
     28  N         14.1940   45.6870    2.1670 N.am  100  THR100     -0.1950
     29  CA        14.4560   47.1110    1.9860 C.3   100  THR100      0.1897
     30  C         14.6120   47.7490    3.3480 C.2   100  THR100      0.2313
     31  O         14.1090   47.2290    4.3530 O.2   100  THR100     -0.2863
     32  CB        13.2850   47.8080    1.2660 C.3   100  THR100      0.1794
     33  OG1       12.0870   47.5970    2.0200 O.3   100  THR100     -0.2208
     34  CG2       12.9730   47.1470   -0.0520 C.3   100  THR100      0.0378
     35  N         12.9410   50.2360    4.9950 N.3   102  HIS102     -0.1241
     36  CA        11.6680   50.8810    4.6800 C.3   102  HIS102      0.1621
     37  C         11.1750   51.8470    5.7560 C.2   102  HIS102      0.2264
     38  O         10.3380   52.7030    5.4800 O.2   102  HIS102     -0.2867
     39  CB        10.6040   49.8390    4.3460 C.3   102  HIS102      0.0745
     40  CG         9.3790   50.4050    3.7060 C.ar  102  HIS102      0.0817
     41  ND1        8.1360   50.3460    4.3010 N.ar  102  HIS102     -0.2268
     42  CD2        9.2010   51.0350    2.5180 C.ar  102  HIS102      0.1154
     43  CE1        7.2500   50.9380    3.5210 C.ar  102  HIS102      0.1986
     44  NE2        7.8700   51.3600    2.4300 N.ar  102  HIS102     -0.2212
     45  N          8.0680   58.9930    2.1470 N.3   122  ASN122     -0.1240
     46  CA         9.4320   59.0520    1.6360 C.3   122  ASN122      0.1653
     47  C          9.8600   60.5030    1.6050 C.2   122  ASN122      0.2266
     48  O          9.0110   61.3980    1.6480 O.2   122  ASN122     -0.2867
     49  CB         9.5440   58.4550    0.2380 C.3   122  ASN122      0.1155
     50  CG         9.2870   56.9830    0.2220 C.2   122  ASN122      0.2627
     51  OD1       10.1850   56.1780    0.4840 O.2   122  ASN122     -0.2716
     52  ND2        8.0430   56.6080   -0.0760 N.am  122  ASN122     -0.0877
     53  N          1.3100   48.6020   -0.2960 N.3   235  SER235     -0.1202
     54  CA         2.0680   47.6080   -1.0270 C.3   235  SER235      0.2020
     55  C          1.6570   46.2220   -0.5340 C.2   235  SER235      0.2619
     56  O          1.2850   46.0540    0.6280 O.2   235  SER235     -0.2717
     57  CB         3.5440   47.8430   -0.8140 C.3   235  SER235      0.2103
     58  OG         4.3180   46.8220   -1.4030 O.3   235  SER235     -0.2182
     59  N          1.6940   45.2410   -1.4270 N.am  236  VAL236     -0.1965
     60  CA         1.1930   43.9030   -1.1360 C.3   236  VAL236      0.1727
     61  C          2.2460   42.9000   -1.5730 C.2   236  VAL236      0.2617
     62  O          2.6360   42.8850   -2.7330 O.2   236  VAL236     -0.2715
     63  CB        -0.1130   43.6260   -1.9210 C.3   236  VAL236      0.0290
     64  CG1       -0.7880   42.3320   -1.4610 C.3   236  VAL236      0.0023
     65  CG2       -1.0720   44.8050   -1.8090 C.3   236  VAL236      0.0023
     66  N          2.7300   42.0820   -0.6450 N.am  237  GLY237     -0.1940
     67  CA         3.6920   41.0490   -0.9890 C.3   237  GLY237      0.2014
     68  C          3.0020   39.7850   -1.4830 C.2   237  GLY237      0.2639
     69  O          1.7710   39.7640   -1.6600 O.2   237  GLY237     -0.2714
     70  N          3.7980   38.7430   -1.7260 N.am  238  SER238     -0.1949
     71  CA         3.2860   37.4380   -2.1320 C.3   238  SER238      0.1924
     72  C          2.9240   36.6130   -0.8940 C.2   238  SER238      0.2314
     73  O          3.7990   36.2020   -0.1290 O.2   238  SER238     -0.2863
     74  CB         4.3310   36.7030   -2.9740 C.3   238  SER238      0.2116
     75  OG         3.8650   35.4080   -3.3160 O.3   238  SER238     -0.2180
     76  N          1.0950   33.6600   -0.5420 N.3   240  GLY240     -0.1225
     77  CA         0.9260   32.2250   -0.6320 C.3   240  GLY240      0.1811
     78  C         -0.2990   31.8080   -1.4260 C.2   240  GLY240      0.2280
     79  O         -1.2110   32.6130   -1.6590 O.2   240  GLY240     -0.2866
     80  N          2.7850   49.8410   -5.4590 N.3   286  PRO286     -0.2116
     81  CA         3.5200   48.9170   -6.3360 C.3   286  PRO286      0.1372
     82  C          3.0830   47.4460   -6.2360 C.2   286  PRO286      0.2244
     83  O          3.9290   46.5740   -6.0260 O.2   286  PRO286     -0.2868
     84  CB         4.9760   49.0800   -5.8780 C.3   286  PRO286      0.0268
     85  CG         4.8920   49.4860   -4.4320 C.3   286  PRO286      0.0207
     86  CD         3.5280   50.1520   -4.2250 C.3   286  PRO286      0.0892
     87  N          2.2800   44.4310   -8.1950 N.3   288  SER288     -0.1217
     88  CA         2.5610   44.0080   -9.5620 C.3   288  SER288      0.1889
     89  C          1.6950   42.8000   -9.9720 C.2   288  SER288      0.2288
     90  O          1.2790   42.0110   -9.1230 O.2   288  SER288     -0.2866
     91  CB         4.0490   43.6960   -9.6960 C.3   288  SER288      0.2089
     92  OG         4.3360   42.4590   -9.0760 O.3   288  SER288     -0.2183
     93  N          2.6240   39.2490   -8.8040 N.3   291  THR291     -0.1218
     94  CA         2.2260   38.9170   -7.4480 C.3   291  THR291      0.1862
     95  C          0.7270   38.6710   -7.4030 C.2   291  THR291      0.2287
     96  O          0.2730   37.6660   -6.8420 O.2   291  THR291     -0.2866
     97  CB         2.6300   40.0390   -6.4790 C.3   291  THR291      0.1770
     98  OG1        4.0020   40.3820   -6.7080 O.3   291  THR291     -0.2211
     99  CG2        2.6540   39.5460   -5.0640 C.3   291  THR291      0.0375
    100  N         -0.8470   35.3380   -8.5970 N.3   294  LYS294     -0.1245
    101  CA        -0.5270   34.2080   -7.7180 C.3   294  LYS294      0.1561
    102  C         -1.5270   34.0170   -6.5880 C.2   294  LYS294      0.2260
    103  O         -1.4530   33.0250   -5.8560 O.2   294  LYS294     -0.2867
    104  CB         0.8270   34.4330   -7.0490 C.3   294  LYS294      0.0271
    105  CG         2.0380   34.1540   -7.8950 C.3   294  LYS294      0.0035
    106  CD         3.2890   34.3630   -7.0570 C.3   294  LYS294      0.0206
    107  CE         4.5400   34.4010   -7.9210 C.3   294  LYS294      0.1093
    108  NZ         5.6210   35.1600   -7.2330 N.3   294  LYS294     -0.1314
    109  N         -0.6870   56.4500    1.3150 N.3   318  HIS318     -0.1241
    110  CA         0.6150   55.8370    1.4710 C.3   318  HIS318      0.1621
    111  C          0.8540   55.5340    2.9550 C.2   318  HIS318      0.2264
    112  O          1.8470   54.9010    3.3180 O.2   318  HIS318     -0.2867
    113  CB         1.7060   56.7470    0.9070 C.3   318  HIS318      0.0745
    114  CG         3.0420   56.0850    0.7980 C.ar  318  HIS318      0.0817
    115  ND1        4.0130   56.2040    1.7730 N.ar  318  HIS318     -0.2268
    116  CD2        3.5870   55.3300   -0.1880 C.ar  318  HIS318      0.1154
    117  CE1        5.0940   55.5410    1.3950 C.ar  318  HIS318      0.1986
    118  NE2        4.8570   54.9940    0.2150 N.ar  318  HIS318     -0.2212
    119  N          3.9540   47.4670    5.2470 N.3   341  ASN341     -0.1240
    120  CA         2.9010   47.0980    4.3200 C.3   341  ASN341      0.1653
    121  C          2.4710   45.6350    4.5180 C.2   341  ASN341      0.2266
    122  O          2.9320   44.9670    5.4500 O.2   341  ASN341     -0.2867
    123  CB         3.3880   47.3310    2.8770 C.3   341  ASN341      0.1155
    124  CG         3.4610   48.7990    2.5150 C.2   341  ASN341      0.2627
    125  OD1        2.4300   49.4560    2.3450 O.2   341  ASN341     -0.2716
    126  ND2        4.6760   49.3240    2.3780 N.am  341  ASN341     -0.0877
    127  N          3.1200   42.5030    3.6680 N.3   343  SER343     -0.1202
    128  CA         4.0800   41.5720    3.0830 C.3   343  SER343      0.2020
    129  C          4.7490   40.7600    4.1850 C.2   343  SER343      0.2619
    130  O          4.8720   41.2250    5.3330 O.2   343  SER343     -0.2717
    131  CB         5.1660   42.3260    2.3130 C.3   343  SER343      0.2103
    132  OG         5.9460   43.0940    3.2130 O.3   343  SER343     -0.2182
    133  N          5.1880   39.5580    3.8280 N.am  344  LYS344     -0.1965
    134  CA         5.9770   38.7310    4.7320 C.3   344  LYS344      0.1728
    135  C          7.3250   39.3780    4.9090 C.2   344  LYS344      0.2616
    136  O          7.9500   39.2480    5.9630 O.2   344  LYS344     -0.2715
    137  CB         6.1660   37.3370    4.1580 C.3   344  LYS344      0.0311
    138  CG         4.9310   36.4530    4.2130 C.3   344  LYS344      0.0038
    139  CD         5.0740   35.3330    3.2050 C.3   344  LYS344      0.0206
    140  CE         4.4720   34.0390    3.6840 C.3   344  LYS344      0.1093
    141  NZ         4.8910   32.9050    2.7960 N.3   344  LYS344     -0.1314
    142  N          7.7860   40.0800    3.8730 N.am  345  ALA345     -0.1963
    143  CA         9.0620   40.7810    3.9510 C.3   345  ALA345      0.1728
    144  C          9.0890   41.7520    5.1480 C.2   345  ALA345      0.2616
    145  O         10.0950   41.8600    5.8790 O.2   345  ALA345     -0.2715
    146  CB         9.3180   41.5380    2.6600 C.3   345  ALA345      0.0334
    147  N          7.9840   42.4600    5.3280 N.am  346  ALA346     -0.1977
    148  CA         7.8710   43.4700    6.3620 C.3   346  ALA346      0.1597
    149  C          7.5140   42.8880    7.7290 C.2   346  ALA346      0.2287
    150  O          8.0170   43.3390    8.7610 O.2   346  ALA346     -0.2864
    151  CB         6.8100   44.5060    5.9450 C.3   346  ALA346      0.0319
    152  N         12.5930   40.1770    6.2980 N.3   360  ARG360     -0.1231
    153  CA        13.4900   40.6810    5.2640 C.3   360  ARG360      0.1694
    154  C         13.9190   42.1370    5.4350 C.2   360  ARG360      0.2592
    155  O         14.9610   42.5210    4.9160 O.2   360  ARG360     -0.2718
    156  CB        12.8510   40.5270    3.8760 C.3   360  ARG360      0.0321
    157  CG        12.9430   39.1300    3.3020 C.3   360  ARG360      0.0489
    158  CD        12.1910   38.9210    1.9920 C.3   360  ARG360      0.2205
    159  NE        11.7290   37.5370    1.8530 N.pl3 360  ARG360     -0.0865
    160  CZ        12.4280   36.5630    1.2800 C.cat 360  ARG360      0.5346
    161  NH1       13.6200   36.8080    0.7700 N.pl3 360  ARG360      0.1354
    162  NH2       11.9330   35.3370    1.2180 N.pl3 360  ARG360      0.1354
    163  N         13.1320   42.9420    6.1550 N.am  361  SER361     -0.1952
    164  CA        13.2410   44.4080    6.0500 C.3   361  SER361      0.1924
    165  C         13.3110   45.1550    7.3620 C.2   361  SER361      0.2314
    166  O         12.9880   44.6160    8.4000 O.2   361  SER361     -0.2863
    167  CB        12.0440   44.9660    5.2780 C.3   361  SER361      0.2116
    168  OG        12.0190   44.5060    3.9420 O.3   361  SER361     -0.2180
    169  N         11.4020   47.9580    9.3680 N.3   363  GLU363     -0.1245
    170  CA        10.1210   48.6760    9.4660 C.3   363  GLU363      0.1567
    171  C          9.9790   49.2490   10.8620 C.2   363  GLU363      0.2260
    172  O         10.6180   48.7690   11.7840 O.2   363  GLU363     -0.2867
    173  CB         8.9290   47.7520    9.1850 C.3   363  GLU363      0.0388
    174  CG         9.0170   46.9800    7.8770 C.3   363  GLU363      0.1160
    175  CD         8.6050   47.7930    6.6570 C.2   363  GLU363      0.3649
    176  OE1        8.7220   47.2430    5.5460 O.co2 363  GLU363     -0.2457
    177  OE2        8.1540   48.9570    6.8010 O.co2 363  GLU363     -0.2457
    178  N          0.1300   48.1320  -10.5280 N.3   407  TRP407     -0.1241
    179  CA         0.8890   49.2310  -11.1060 C.3   407  TRP407      0.1605
    180  C          1.5350   48.9890  -12.4610 C.2   407  TRP407      0.2264
    181  O          1.8510   49.9500  -13.1470 O.2   407  TRP407     -0.2867
    182  CB         1.9160   49.7970  -10.1090 C.3   407  TRP407      0.0550
    183  CG         3.2350   49.0580   -9.9510 C.ar  407  TRP407      0.0003
    184  CD1        3.4560   47.7150  -10.0510 C.ar  407  TRP407      0.0946
    185  CD2        4.5050   49.6390   -9.6100 C.ar  407  TRP407      0.0152
    186  NE1        4.7820   47.4300   -9.8270 N.ar  407  TRP407     -0.2442
    187  CE2        5.4460   48.5950   -9.5470 C.ar  407  TRP407      0.0810
    188  CE3        4.9450   50.9480   -9.3530 C.ar  407  TRP407      0.0012
    189  CZ2        6.7940   48.8180   -9.2530 C.ar  407  TRP407      0.0191
    190  CZ3        6.2900   51.1650   -9.0580 C.ar  407  TRP407      0.0001
    191  CH2        7.1910   50.1090   -9.0060 C.ar  407  TRP407      0.0015
@<TRIPOS>BOND
     1   181   180    2
     2   180   179    1
     3   179   178    1
     4   179   182    1
     5   182   183    1
     6   184   183   ar
     7   184   186   ar
     8    89    88    1
     9    89    90    2
    10   183   185   ar
    11   186   187   ar
    12    91    88    1
    13    91    92    1
    14   185   187   ar
    15   185   188   ar
    16    88    87    1
    17   187   189   ar
    18   188   190   ar
    19   189   191   ar
    20   190   191   ar
    21    93    94    1
    22   100   101    1
    23   107   108    1
    24   107   106    1
    25   105   106    1
    26   105   104    1
    27   101   104    1
    28   101   102    1
    29    94    95    1
    30    94    97    1
    31    95    96    2
    32    98    97    1
    33   102   103    2
    34    97    99    1
    35    81    82    1
    36    81    84    1
    37    81    80    1
    38    82    83    2
    39    84    85    1
    40    23    22   ar
    41    23    21   ar
    42    80    86    1
    43    22    20   ar
    44    21    19   ar
    45    85    86    1
    46    20    18   ar
    47    19    18   ar
    48    75    74    1
    49    18    17    1
    50    74    71    1
    51    62    61    2
    52    12    11    1
    53    71    70    1
    54    71    72    1
    55    63    65    1
    56    63    64    1
    57    63    60    1
    58    70    68   am
    59    11    10   ar
    60    11     9   ar
    61    17    14    1
    62    69    68    2
    63    79    78    2
    64    10     8   ar
    65    61    60    1
    66    61    66   am
    67    68    67    1
    68    59    60    1
    69    59    55   am
    70    78    77    1
    71    58    57    1
    72    14    13    1
    73    14    15    1
    74    54    57    1
    75    54    55    1
    76    54    53    1
    77    67    66    1
    78    72    73    2
    79     9     7   ar
    80    77    76    1
    81     8     6   ar
    82    55    56    2
    83   116   118   ar
    84   116   114   ar
    85    15    16    2
    86    15    24   am
    87    52    50   am
    88    34    32    1
    89     4     3    2
    90     7     6   ar
    91   118   117   ar
    92    50    49    1
    93    50    51    2
    94    49    46    1
    95     6     5    1
    96    27    26    2
    97     3     2    1
    98    24    25    1
    99   161   160    1
   100   114   113    1
   101   114   115   ar
   102   113   110    1
   103   162   160    1
   104    32    29    1
   105    32    33    1
   106   160   159    2
   107   109   110    1
   108     5     2    1
   109   117   115   ar
   110    26    25    1
   111    26    28   am
   112   110   111    1
   113    47    46    1
   114    47    48    2
   115    46    45    1
   116     2     1    1
   117   159   158    1
   118    29    28    1
   119    29    30    1
   120   158   157    1
   121   131   128    1
   122   131   132    1
   123   125   124    2
   124   126   124   am
   125    44    42   ar
   126    44    43   ar
   127   124   123    1
   128    42    40   ar
   129   146   143    1
   130   141   140    1
   131   123   120    1
   132   111   112    2
   133   128   127    1
   134   128   129    1
   135   139   140    1
   136   139   138    1
   137   157   156    1
   138    30    31    2
   139    43    41   ar
   140    40    41   ar
   141    40    39    1
   142   133   129   am
   143   133   134    1
   144   142   143    1
   145   142   135   am
   146   156   153    1
   147   168   167    1
   148   143   144    1
   149   137   138    1
   150   137   134    1
   151   129   130    2
   152   120   121    1
   153   120   119    1
   154    39    36    1
   155   121   122    2
   156    36    35    1
   157    36    37    1
   158   134   135    1
   159   135   136    2
   160   155   154    2
   161   144   147   am
   162   144   145    2
   163   153   154    1
   164   153   152    1
   165   167   164    1
   166   147   148    1
   167   154   163   am
   168    38    37    2
   169   176   175   ar
   170   151   148    1
   171   164   163    1
   172   164   165    1
   173   148   149    1
   174   175   177   ar
   175   175   174    1
   176   165   166    2
   177   149   150    2
   178   174   173    1
   179   173   170    1
   180   169   170    1
   181   170   171    1
   182   171   172    2
