@<TRIPOS>MOLECULE
tmp/1rgyA00.pdb
 128 120 0 0 0
SMALL
GASTEIGER

@<TRIPOS>ATOM
      1  N          6.5440   33.9900   46.7240 N.3    63  SER63      -0.1217
      2  CA         5.4130   34.3650   47.5530 C.3    63  SER63       0.1889
      3  C          5.4230   35.7280   48.2250 C.2    63  SER63       0.2288
      4  O          4.4400   36.0970   48.8550 O.2    63  SER63      -0.2866
      5  CB         5.1450   33.2730   48.5760 C.3    63  SER63       0.2089
      6  OG         4.7490   32.0620   47.9780 O.3    63  SER63      -0.2183
      7  N          2.5820   37.8020   47.4640 N.3    66  LYS66      -0.1245
      8  CA         1.3250   37.7880   48.2070 C.3    66  LYS66       0.1561
      9  C          1.1160   39.0660   49.0260 C.2    66  LYS66       0.2260
     10  O         -0.0200   39.4020   49.3540 O.2    66  LYS66      -0.2867
     11  CB         1.2580   36.5660   49.1300 C.3    66  LYS66       0.0271
     12  CG         1.1420   35.2370   48.4080 C.3    66  LYS66       0.0035
     13  CD         1.1330   34.0810   49.3890 C.3    66  LYS66       0.0206
     14  CE         0.8930   32.7620   48.6830 C.3    66  LYS66       0.1093
     15  NZ         1.9630   32.4570   47.7030 N.3    66  LYS66      -0.1314
     16  N         -2.1760   23.6330   48.2950 N.3   118  LEU118     -0.1231
     17  CA        -0.9980   24.4850   48.1860 C.3   118  LEU118      0.1693
     18  C         -0.8330   24.9680   46.7490 C.2   118  LEU118      0.2591
     19  O         -0.6040   26.1550   46.4990 O.2   118  LEU118     -0.2718
     20  CB         0.2540   23.7060   48.6110 C.3   118  LEU118      0.0284
     21  CG         1.6030   24.4250   48.4710 C.3   118  LEU118      0.0019
     22  CD1        1.6060   25.6950   49.3130 C.3   118  LEU118      0.0001
     23  CD2        2.7280   23.4970   48.9090 C.3   118  LEU118      0.0001
     24  N         -0.9570   24.0430   45.8030 N.am  119  GLN119     -0.1979
     25  CA        -0.8130   24.3760   44.3930 C.3   119  GLN119      0.1601
     26  C         -2.0740   24.0890   43.6030 C.2   119  GLN119      0.2287
     27  O         -2.8440   23.1880   43.9420 O.2   119  GLN119     -0.2864
     28  CB         0.3060   23.5500   43.7580 C.3   119  GLN119      0.0394
     29  CG         1.6320   23.6100   44.4720 C.3   119  GLN119      0.0908
     30  CD         2.2840   24.9640   44.3620 C.2   119  GLN119      0.2608
     31  OE1        1.7120   25.8990   43.7990 O.2   119  GLN119     -0.2717
     32  NE2        3.4890   25.0790   44.8980 N.am  119  GLN119     -0.0878
     33  N         -1.6020   27.1070   54.4220 N.3   149  TYR149     -0.1241
     34  CA        -0.9950   27.9900   53.4320 C.3   149  TYR149      0.1605
     35  C         -1.2220   27.4140   52.0440 C.2   149  TYR149      0.2264
     36  O         -0.9690   26.2330   51.8020 O.2   149  TYR149     -0.2867
     37  CB         0.4930   28.1310   53.7240 C.3   149  TYR149      0.0534
     38  CG         1.2140   29.1120   52.8360 C.ar  149  TYR149     -0.0201
     39  CD1        1.9150   28.6820   51.7130 C.ar  149  TYR149     -0.0009
     40  CD2        1.2250   30.4710   53.1440 C.ar  149  TYR149     -0.0009
     41  CE1        2.6220   29.5840   50.9220 C.ar  149  TYR149      0.0417
     42  CE2        1.9200   31.3790   52.3620 C.ar  149  TYR149      0.0417
     43  CZ         2.6200   30.9300   51.2580 C.ar  149  TYR149      0.1957
     44  OH         3.3560   31.8190   50.5170 O.3   149  TYR149     -0.2866
     45  N         -1.4040   28.5590   47.5800 N.3   151  ASN151     -0.1240
     46  CA        -1.4280   29.4990   46.4720 C.3   151  ASN151      0.1653
     47  C         -2.8380   29.5570   45.8910 C.2   151  ASN151      0.2266
     48  O         -3.2840   30.6130   45.4520 O.2   151  ASN151     -0.2867
     49  CB        -0.4550   29.0800   45.3690 C.3   151  ASN151      0.1155
     50  CG         0.9890   29.2660   45.7700 C.2   151  ASN151      0.2627
     51  OD1        1.3290   30.2140   46.4790 O.2   151  ASN151     -0.2716
     52  ND2        1.8510   28.3750   45.3030 N.am  151  ASN151     -0.0877
     53  N         10.8680   31.3750   36.2630 N.3   210  VAL210     -0.1231
     54  CA         9.5850   30.7920   36.6200 C.3   210  VAL210      0.1692
     55  C          8.7230   30.6340   35.3670 C.2   210  VAL210      0.2592
     56  O          8.7550   31.4800   34.4790 O.2   210  VAL210     -0.2718
     57  CB         8.8570   31.6760   37.6790 C.3   210  VAL210      0.0266
     58  CG1        8.5120   33.0350   37.0870 C.3   210  VAL210      0.0020
     59  CG2        7.6150   30.9680   38.1940 C.3   210  VAL210      0.0020
     60  N          7.9740   29.5380   35.2880 N.am  211  SER211     -0.1952
     61  CA         7.1120   29.2880   34.1350 C.3   211  SER211      0.1924
     62  C          5.7020   29.7940   34.4080 C.2   211  SER211      0.2314
     63  O          5.2990   29.9400   35.5580 O.2   211  SER211     -0.2863
     64  CB         7.0420   27.7860   33.8250 C.3   211  SER211      0.2116
     65  OG         8.3110   27.2610   33.4680 O.3   211  SER211     -0.2180
     66  N          2.6510   34.1850   43.2560 N.3   220  TYR220     -0.1241
     67  CA         4.1060   34.0980   43.3070 C.3   220  TYR220      0.1605
     68  C          4.8520   34.6440   42.0990 C.2   220  TYR220      0.2264
     69  O          6.0460   34.3670   41.9480 O.2   220  TYR220     -0.2867
     70  CB         4.5020   32.6170   43.4730 C.3   220  TYR220      0.0534
     71  CG         3.9610   31.7130   42.3680 C.ar  220  TYR220     -0.0201
     72  CD1        2.8170   30.9340   42.5670 C.ar  220  TYR220     -0.0009
     73  CD2        4.5710   31.6670   41.1130 C.ar  220  TYR220     -0.0009
     74  CE1        2.2960   30.1340   41.5410 C.ar  220  TYR220      0.0417
     75  CE2        4.0610   30.8730   40.0860 C.ar  220  TYR220      0.0417
     76  CZ         2.9230   30.1110   40.3050 C.ar  220  TYR220      0.1957
     77  OH         2.4130   29.3380   39.2830 O.3   220  TYR220     -0.2866
     78  N          3.9780   24.9960   56.2010 N.3   292  LEU292     -0.1245
     79  CA         3.0440   24.3600   55.2770 C.3   292  LEU292      0.1561
     80  C          2.0360   23.4320   55.9590 C.2   292  LEU292      0.2260
     81  O          1.1920   22.8270   55.3010 O.2   292  LEU292     -0.2867
     82  CB         3.8150   23.5860   54.2010 C.3   292  LEU292      0.0270
     83  CG         4.8660   24.3710   53.4040 C.3   292  LEU292      0.0019
     84  CD1        5.4270   23.4780   52.3050 C.3   292  LEU292      0.0001
     85  CD2        4.2500   25.6270   52.8050 C.3   292  LEU292      0.0001
     86  N          7.6690   38.0510   55.3130 N.3   314  LYS314     -0.1231
     87  CA         7.2010   37.1110   54.3030 C.3   314  LYS314      0.1693
     88  C          8.3610   36.4770   53.5450 C.2   314  LYS314      0.2593
     89  O          9.3220   37.1590   53.1500 O.2   314  LYS314     -0.2718
     90  CB         6.2600   37.7870   53.2940 C.3   314  LYS314      0.0285
     91  CG         5.5820   36.7800   52.3540 C.3   314  LYS314      0.0035
     92  CD         4.4910   35.9890   53.0850 C.3   314  LYS314      0.0206
     93  CE         3.9220   34.8430   52.2360 C.3   314  LYS314      0.1093
     94  NZ         4.8730   33.7030   52.1210 N.3   314  LYS314     -0.1314
     95  N          8.2680   35.1600   53.3700 N.am  315  THR315     -0.1939
     96  CA         9.2540   34.3950   52.6200 C.3   315  THR315      0.2028
     97  C          8.6890   34.1610   51.2190 C.2   315  THR315      0.2643
     98  O          7.4760   34.2000   51.0080 O.2   315  THR315     -0.2714
     99  CB         9.4940   33.0130   53.2440 C.3   315  THR315      0.1808
    100  OG1        8.2340   32.3620   53.4190 O.3   315  THR315     -0.2208
    101  CG2       10.2000   33.1320   54.5890 C.3   315  THR315      0.0379
    102  N          9.5700   33.9110   50.2620 N.am  316  GLY316     -0.1939
    103  CA         9.1200   33.6480   48.9100 C.3   316  GLY316      0.2014
    104  C         10.1570   32.8790   48.1230 C.2   316  GLY316      0.2640
    105  O         11.3540   33.1470   48.2350 O.2   316  GLY316     -0.2714
    106  N          9.7020   31.9220   47.3230 N.am  317  SER317     -0.1935
    107  CA        10.6150   31.1270   46.5170 C.3   317  SER317      0.2055
    108  C         10.0060   30.7270   45.1850 C.2   317  SER317      0.2644
    109  O          8.7900   30.6050   45.0560 O.2   317  SER317     -0.2714
    110  CB        10.9830   29.8210   47.2320 C.3   317  SER317      0.2130
    111  OG        11.5240   30.0360   48.5190 O.3   317  SER317     -0.2179
    112  N         10.8690   30.5510   44.1950 N.am  318  THR318     -0.1936
    113  CA        10.4570   30.0230   42.9030 C.3   318  THR318      0.2028
    114  C         11.5160   28.9470   42.7060 C.2   318  THR318      0.2642
    115  O         12.3190   28.6970   43.6120 O.2   318  THR318     -0.2714
    116  CB        10.5160   31.0440   41.7460 C.3   318  THR318      0.1808
    117  OG1       11.8350   31.5860   41.6400 O.3   318  THR318     -0.2208
    118  CG2        9.4940   32.1510   41.9520 C.3   318  THR318      0.0379
    119  N         11.5390   28.3080   41.5470 N.am  319  GLY319     -0.1954
    120  CA        12.5380   27.2740   41.3390 C.3   319  GLY319      0.1869
    121  C         13.9700   27.7850   41.4110 C.2   319  GLY319      0.2309
    122  O         14.8710   27.0800   41.8760 O.2   319  GLY319     -0.2863
    123  N         17.3490   29.3700   45.3300 N.3   342  SER342     -0.1217
    124  CA        16.4570   29.0990   46.4430 C.3   342  SER342      0.1889
    125  C         17.2720   28.3300   47.4690 C.2   342  SER342      0.2288
    126  O         17.9720   27.3780   47.1250 O.2   342  SER342     -0.2866
    127  CB        15.2630   28.2550   45.9940 C.3   342  SER342      0.2089
    128  OG        14.3990   27.9880   47.0910 O.3   342  SER342     -0.2183
@<TRIPOS>BOND
     1    65    64    1
     2    64    61    1
     3    61    62    1
     4    61    60    1
     5    62    63    2
     6    56    55    2
     7    60    55   am
     8    55    54    1
     9    53    54    1
    10    54    57    1
    11    58    57    1
    12    57    59    1
    13    77    76    1
    14    75    76   ar
    15    75    73   ar
    16    76    74   ar
    17    73    71   ar
    18   120   121    1
    19   120   119    1
    20   121   122    2
    21    74    72   ar
    22   119   114   am
    23   117   116    1
    24   116   118    1
    25   116   113    1
    26    69    68    2
    27    68    67    1
    28    71    72   ar
    29    71    70    1
    30   114   113    1
    31   114   115    2
    32   113   112    1
    33    66    67    1
    34    67    70    1
    35    26    27    2
    36    26    25    1
    37    28    25    1
    38    28    29    1
    39    31    30    2
    40   112   108   am
    41    30    29    1
    42    30    32   am
    43    25    24    1
    44   109   108    2
    45   108   107    1
    46    52    50   am
    47   123   124    1
    48    49    50    1
    49    49    46    1
    50    48    47    2
    51    50    51    2
    52    24    18   am
    53    47    46    1
    54   127   124    1
    55   127   128    1
    56   124   125    1
    57    46    45    1
    58    19    18    2
    59   107   110    1
    60   107   106    1
    61     1     2    1
    62    18    17    1
    63   126   125    2
    64   110   111    1
    65   106   104   am
    66     7     8    1
    67     2     3    1
    68     2     5    1
    69    15    14    1
    70     6     5    1
    71   104   105    2
    72   104   103    1
    73    17    16    1
    74    17    20    1
    75     8     9    1
    76     8    11    1
    77     3     4    2
    78    12    11    1
    79    12    13    1
    80    21    20    1
    81    21    23    1
    82    21    22    1
    83    14    13    1
    84   103   102    1
    85     9    10    2
    86   102    97   am
    87    44    43    1
    88    41    43   ar
    89    41    39   ar
    90    98    97    2
    91    97    96    1
    92    43    42   ar
    93    39    38   ar
    94    36    35    2
    95    35    34    1
    96    94    93    1
    97    93    92    1
    98    84    83    1
    99    91    92    1
   100    91    90    1
   101    42    40   ar
   102    96    99    1
   103    96    95    1
   104    85    83    1
   105    38    40   ar
   106    38    37    1
   107    89    88    2
   108    99   100    1
   109    99   101    1
   110    90    87    1
   111    95    88   am
   112    83    82    1
   113    34    37    1
   114    34    33    1
   115    88    87    1
   116    82    79    1
   117    87    86    1
   118    79    80    1
   119    79    78    1
   120    81    80    2
