@<TRIPOS>MOLECULE
tmp/1rgzA00.pdb
 152 145 0 0 0
SMALL
GASTEIGER

@<TRIPOS>ATOM
      1  N         14.6580   16.9360   12.1230 N.3    62  GLY62      -0.1210
      2  CA        15.3770   17.4210   10.9440 C.3    62  GLY62       0.1956
      3  C         16.0580   16.2800   10.2380 C.2    62  GLY62       0.2612
      4  O         15.5430   15.1830   10.1250 O.2    62  GLY62      -0.2717
      5  N         17.2800   16.4930    9.7630 N.am   63  SER63      -0.1952
      6  CA        17.9850   15.4860    9.0080 C.3    63  SER63       0.1924
      7  C         18.3950   14.2300    9.7360 C.2    63  SER63       0.2314
      8  O         18.8380   13.2940    9.0440 O.2    63  SER63      -0.2863
      9  CB        19.2490   16.1070    8.3660 C.3    63  SER63       0.2116
     10  OG        18.8570   17.0930    7.4410 O.3    63  SER63      -0.2180
     11  N         16.2060   12.3620   10.4690 N.3    65  SER65      -0.1202
     12  CA        15.2360   11.6010    9.7140 C.3    65  SER65       0.2020
     13  C         15.9110   10.7140    8.6500 C.2    65  SER65       0.2618
     14  O         15.4060    9.6300    8.3430 O.2    65  SER65      -0.2717
     15  CB        14.2330   12.5210    9.0330 C.3    65  SER65       0.2103
     16  OG        13.5480   13.3450    9.9830 O.3    65  SER65      -0.2182
     17  N         17.0120   11.1880    8.0890 N.am   66  LYS66      -0.1979
     18  CA        17.7170   10.4340    7.0500 C.3    66  LYS66       0.1596
     19  C         18.2350    9.0910    7.5600 C.2    66  LYS66       0.2287
     20  O         18.4320    8.1590    6.7810 O.2    66  LYS66      -0.2864
     21  CB        18.8740   11.2630    6.4840 C.3    66  LYS66       0.0298
     22  CG        18.4600   12.5020    5.7090 C.3    66  LYS66       0.0038
     23  CD        19.6330   13.3040    5.2310 C.3    66  LYS66       0.0206
     24  CE        19.2860   14.4490    4.3310 C.3    66  LYS66       0.1093
     25  NZ        18.7100   15.5790    5.0800 N.3    66  LYS66      -0.1314
     26  N         21.3870   20.7590   -2.6590 N.3   118  LEU118     -0.1231
     27  CA        20.9520   20.5930   -1.2970 C.3   118  LEU118      0.1693
     28  C         19.4400   20.4380   -1.1920 C.2   118  LEU118      0.2591
     29  O         18.9350   19.5240   -0.5350 O.2   118  LEU118     -0.2718
     30  CB        21.4390   21.7640   -0.4420 C.3   118  LEU118      0.0284
     31  CG        21.0420   21.7090    1.0470 C.3   118  LEU118      0.0019
     32  CD1       21.6050   20.5120    1.7870 C.3   118  LEU118      0.0001
     33  CD2       21.5200   22.9860    1.7280 C.3   118  LEU118      0.0001
     34  N         18.7020   21.3190   -1.8410 N.am  119  GLN119     -0.1979
     35  CA        17.2640   21.3800   -1.7850 C.3   119  GLN119      0.1601
     36  C         16.6090   21.0440   -3.1170 C.2   119  GLN119      0.2287
     37  O         17.0850   21.3990   -4.1780 O.2   119  GLN119     -0.2864
     38  CB        16.7880   22.7710   -1.3710 C.3   119  GLN119      0.0394
     39  CG        17.7200   23.4580   -0.3780 C.3   119  GLN119      0.0908
     40  CD        17.4780   22.9220    1.0240 C.2   119  GLN119      0.2608
     41  OE1       16.6890   21.9780    1.1630 O.2   119  GLN119     -0.2717
     42  NE2       18.1260   23.4960    2.0280 N.am  119  GLN119     -0.0878
     43  N         26.3570   16.8360    0.1220 N.3   149  TYR149     -0.1241
     44  CA        25.1970   16.5360    0.9630 C.3   149  TYR149      0.1605
     45  C         23.9500   17.1710    0.4000 C.2   149  TYR149      0.2264
     46  O         23.9570   18.3440    0.0750 O.2   149  TYR149     -0.2867
     47  CB        25.5010   17.0540    2.3520 C.3   149  TYR149      0.0534
     48  CG        24.4270   16.8470    3.3860 C.ar  149  TYR149     -0.0201
     49  CD1       24.3540   15.6380    4.0810 C.ar  149  TYR149     -0.0009
     50  CD2       23.5040   17.8250    3.7100 C.ar  149  TYR149     -0.0009
     51  CE1       23.4030   15.3960    5.0410 C.ar  149  TYR149      0.0417
     52  CE2       22.5310   17.5810    4.6860 C.ar  149  TYR149      0.0417
     53  CZ        22.4780   16.3770    5.3420 C.ar  149  TYR149      0.1957
     54  OH        21.5450   16.1170    6.3070 O.3   149  TYR149     -0.2866
     55  N         19.4100   16.9150    0.2580 N.3   151  ASN151     -0.1240
     56  CA        18.0620   16.3970    0.4250 C.3   151  ASN151      0.1653
     57  C         17.5390   15.9170   -0.9260 C.2   151  ASN151      0.2266
     58  O         16.8160   14.9200   -0.9860 O.2   151  ASN151     -0.2867
     59  CB        17.1570   17.4850    0.9950 C.3   151  ASN151      0.1155
     60  CG        17.6820   18.0040    2.3180 C.2   151  ASN151      0.2627
     61  OD1       18.0810   17.2410    3.1760 O.2   151  ASN151     -0.2716
     62  ND2       17.7140   19.3120    2.5070 N.am  151  ASN151     -0.0877
     63  N         13.1740   30.3290   17.2970 N.3   203  ARG203     -0.1245
     64  CA        14.1230   30.9300   16.3750 C.3   203  ARG203      0.1563
     65  C         14.0790   32.4370   16.5800 C.2   203  ARG203      0.2260
     66  O         13.0400   33.0660   16.3420 O.2   203  ARG203     -0.2867
     67  CB        13.8260   30.6000   14.9070 C.3   203  ARG203      0.0307
     68  CG        14.7470   31.4280   14.0520 C.3   203  ARG203      0.0489
     69  CD        15.3790   30.7700   12.9010 C.3   203  ARG203      0.2205
     70  NE        14.6630   30.2720   11.8160 N.pl3 203  ARG203     -0.0865
     71  CZ        14.6680   29.9660   10.5310 C.cat 203  ARG203      0.5346
     72  NH1       15.6920   30.1170    9.6820 N.pl3 203  ARG203      0.1354
     73  NH2       13.5440   29.4460    9.9860 N.pl3 203  ARG203      0.1354
     74  N          7.7410   23.1600   12.0740 N.3   210  ALA210     -0.1231
     75  CA         7.8920   22.7590   10.6920 C.3   210  ALA210      0.1694
     76  C          6.5480   22.8310    9.9760 C.2   210  ALA210      0.2591
     77  O          5.5290   22.5050   10.5210 O.2   210  ALA210     -0.2718
     78  CB         8.4150   21.3380   10.5810 C.3   210  ALA210      0.0304
     79  N          6.6280   23.2380    8.7310 N.am  211  VAL211     -0.1980
     80  CA         5.4770   23.2740    7.8500 C.3   211  VAL211      0.1595
     81  C          5.5140   22.0160    6.9850 C.2   211  VAL211      0.2287
     82  O          6.5960   21.4450    6.7970 O.2   211  VAL211     -0.2864
     83  CB         5.4220   24.5620    7.0200 C.3   211  VAL211      0.0276
     84  CG1        4.9150   25.7010    7.9200 C.3   211  VAL211      0.0022
     85  CG2        6.7440   24.9490    6.3640 C.3   211  VAL211      0.0022
     86  N          9.3520   12.5900    3.7190 N.3   221  GLN221     -0.1231
     87  CA        10.7750   12.7670    3.9730 C.3   221  GLN221      0.1698
     88  C         11.0550   14.2420    4.3020 C.2   221  GLN221      0.2592
     89  O         11.9050   14.6140    5.0950 O.2   221  GLN221     -0.2718
     90  CB        11.6560   12.3610    2.7980 C.3   221  GLN221      0.0381
     91  CG        11.6910   10.9250    2.2910 C.3   221  GLN221      0.0905
     92  CD        10.5740   10.8020    1.2660 C.2   221  GLN221      0.2608
     93  OE1        9.4430   11.1110    1.6210 O.2   221  GLN221     -0.2717
     94  NE2       10.8530   10.3760    0.0440 N.am  221  GLN221     -0.0878
     95  N         10.3160   15.1540    3.6590 N.am  222  ALA222     -0.1966
     96  CA        10.6120   16.5670    3.8100 C.3   222  ALA222      0.1728
     97  C         10.0240   17.1170    5.1000 C.2   222  ALA222      0.2616
     98  O         10.6470   17.9820    5.7310 O.2   222  ALA222     -0.2715
     99  CB        10.0980   17.3090    2.5900 C.3   222  ALA222      0.0334
    100  N          8.8490   16.6130    5.4780 N.am  223  TYR223     -0.1960
    101  CA         8.1740   17.0830    6.6970 C.3   223  TYR223      0.1771
    102  C          8.9040   16.5590    7.9190 C.2   223  TYR223      0.2620
    103  O          8.9640   17.1280    9.0060 O.2   223  TYR223     -0.2715
    104  CB         6.7050   16.6830    6.6820 C.3   223  TYR223      0.0574
    105  CG         5.8430   17.2130    7.8070 C.ar  223  TYR223     -0.0198
    106  CD1        6.0970   18.4060    8.4550 C.ar  223  TYR223     -0.0009
    107  CD2        4.7340   16.5280    8.2750 C.ar  223  TYR223     -0.0009
    108  CE1        5.3170   18.9100    9.4870 C.ar  223  TYR223      0.0417
    109  CE2        3.9230   16.9760    9.2910 C.ar  223  TYR223      0.0417
    110  CZ         4.2240   18.1790    9.9120 C.ar  223  TYR223      0.1957
    111  OH         3.4350   18.6490   10.9280 O.3   223  TYR223     -0.2866
    112  N          9.5510   15.4110    7.7360 N.am  224  GLY224     -0.1954
    113  CA        10.4540   14.9540    8.7240 C.3   224  GLY224      0.1869
    114  C          9.7630   14.3360    9.9090 C.2   224  GLY224      0.2309
    115  O          8.5840   14.4920   10.1960 O.2   224  GLY224     -0.2863
    116  N         24.7890   11.5490   13.4950 N.3   317  LYS317     -0.1231
    117  CA        24.0730   12.4320   12.5850 C.3   317  LYS317      0.1693
    118  C         23.4970   13.6360   13.3170 C.2   317  LYS317      0.2593
    119  O         22.9350   13.4800   14.4100 O.2   317  LYS317     -0.2718
    120  CB        22.9150   11.6650   11.9360 C.3   317  LYS317      0.0285
    121  CG        22.2290   12.4360   10.8130 C.3   317  LYS317      0.0035
    122  CD        23.0320   12.5500    9.5450 C.3   317  LYS317      0.0206
    123  CE        22.3920   13.3590    8.4370 C.3   317  LYS317      0.1093
    124  NZ        22.6460   14.8280    8.6810 N.3   317  LYS317     -0.1314
    125  N         23.6720   14.7920   12.7010 N.am  318  THR318     -0.1939
    126  CA        23.0290   16.0060   13.1600 C.3   318  THR318      0.2028
    127  C         21.7540   16.2520   12.3620 C.2   318  THR318      0.2643
    128  O         21.6380   15.8150   11.2120 O.2   318  THR318     -0.2714
    129  CB        23.9610   17.2240   13.1370 C.3   318  THR318      0.1808
    130  OG1       23.3780   18.1890   14.0520 O.3   318  THR318     -0.2208
    131  CG2       24.1070   17.8890   11.7930 C.3   318  THR318      0.0379
    132  N         20.8090   16.9760   12.9740 N.am  319  GLY319     -0.1939
    133  CA        19.6310   17.3900   12.2450 C.3   319  GLY319      0.2014
    134  C         19.0420   18.6520   12.8280 C.2   319  GLY319      0.2640
    135  O         19.0320   18.7870   14.0520 O.2   319  GLY319     -0.2714
    136  N         18.5540   19.4970   11.9410 N.am  320  SER320     -0.1935
    137  CA        17.9270   20.7410   12.3420 C.3   320  SER320      0.2055
    138  C         16.6940   21.0370   11.5150 C.2   320  SER320      0.2644
    139  O         16.5610   20.6360   10.3640 O.2   320  SER320     -0.2714
    140  CB        18.9370   21.8930   12.1360 C.3   320  SER320      0.2130
    141  OG        20.1840   21.6100   12.7620 O.3   320  SER320     -0.2179
    142  N         15.8120   21.8240   12.1160 N.am  321  THR321     -0.1936
    143  CA        14.7430   22.5090   11.4150 C.3   321  THR321      0.2028
    144  C         14.8120   23.9850   11.8000 C.2   321  THR321      0.2642
    145  O         15.7760   24.4230   12.4380 O.2   321  THR321     -0.2714
    146  CB        13.3510   21.9440   11.7170 C.3   321  THR321      0.1808
    147  OG1       13.0990   22.1070   13.1110 O.3   321  THR321     -0.2208
    148  CG2       13.2630   20.4430   11.4430 C.3   321  THR321      0.0379
    149  N         13.8090   24.7880   11.4150 N.am  322  GLY322     -0.1954
    150  CA        13.9310   26.1890   11.7570 C.3   322  GLY322      0.1869
    151  C         13.9760   26.4030   13.2410 C.2   322  GLY322      0.2309
    152  O         14.6850   27.3100   13.7020 O.2   322  GLY322     -0.2863
@<TRIPOS>BOND
     1    37    36    2
     2    36    35    1
     3    26    27    1
     4    34    35    1
     5    34    28   am
     6    35    38    1
     7    38    39    1
     8    27    28    1
     9    27    30    1
    10    28    29    2
    11    58    57    2
    12    57    56    1
    13    30    31    1
    14    39    40    1
    15    94    92   am
    16    46    45    2
    17    43    44    1
    18    55    56    1
    19    45    44    1
    20    56    59    1
    21    44    47    1
    22    59    60    1
    23    40    41    2
    24    40    42   am
    25    31    33    1
    26    31    32    1
    27    92    93    2
    28    92    91    1
    29    91    90    1
    30    60    62   am
    31    60    61    2
    32    47    48    1
    33    99    96    1
    34    90    87    1
    35    48    50   ar
    36    48    49   ar
    37    95    96    1
    38    95    88   am
    39    50    52   ar
    40    86    87    1
    41    96    97    1
    42    87    88    1
    43    49    51   ar
    44    88    89    2
    45    24    25    1
    46    24    23    1
    47    52    53   ar
    48    51    53   ar
    49    97   100   am
    50    97    98    2
    51    23    22    1
    52    53    54    1
    53   100   101    1
    54    22    21    1
    55    85    83    1
    56    21    18    1
    57   104   101    1
    58   104   105    1
    59   101   102    1
    60    20    19    2
    61    82    81    2
    62    81    80    1
    63    83    80    1
    64    83    84    1
    65    18    19    1
    66    18    17    1
    67    10     9    1
    68   112   102   am
    69   112   113    1
    70   105   107   ar
    71   105   106   ar
    72    80    79    1
    73   102   103    2
    74    17    13   am
    75   107   109   ar
    76    14    13    2
    77     9     6    1
    78   123   124    1
    79   123   122    1
    80   106   108   ar
    81    13    12    1
    82   113   114    1
    83    79    76   am
    84     6     7    1
    85     6     5    1
    86    15    12    1
    87    15    16    1
    88     8     7    2
    89   109   110   ar
    90   108   110   ar
    91   122   121    1
    92    72    71    1
    93    12    11    1
    94     5     3   am
    95   114   115    2
    96   110   111    1
    97    76    77    2
    98    76    75    1
    99    73    71    1
   100     4     3    2
   101     3     2    1
   102   139   138    2
   103    71    70    2
   104    78    75    1
   105    75    74    1
   106   121   120    1
   107     2     1    1
   108   128   127    2
   109   143   146    1
   110   143   144    1
   111   143   142    1
   112   149   150    1
   113   149   144   am
   114   148   146    1
   115   138   142   am
   116   138   137    1
   117   146   147    1
   118   150   151    1
   119   131   129    1
   120   144   145    2
   121    70    69    1
   122   120   117    1
   123   136   137    1
   124   136   134   am
   125   140   137    1
   126   140   141    1
   127   133   134    1
   128   133   132    1
   129   127   132   am
   130   127   126    1
   131   117   118    1
   132   117   116    1
   133   125   126    1
   134   125   118   am
   135   134   135    2
   136    69    68    1
   137   129   126    1
   138   129   130    1
   139   151   152    2
   140   118   119    2
   141    68    67    1
   142    67    64    1
   143    66    65    2
   144    64    65    1
   145    64    63    1
