@<TRIPOS>MOLECULE
tmp/1rh0D00.pdb
 178 171 0 0 0
SMALL
GASTEIGER

@<TRIPOS>ATOM
      1  N          1.7090   43.3080   60.9350 N.3    43  TYR43      -0.1241
      2  CA         1.5290   41.9980   61.5220 C.3    43  TYR43       0.1605
      3  C          1.0950   42.1380   62.9810 C.2    43  TYR43       0.2264
      4  O          0.0470   41.6310   63.3340 O.2    43  TYR43      -0.2867
      5  CB         2.8010   41.1660   61.3680 C.3    43  TYR43       0.0534
      6  CG         2.7470   39.8560   62.1090 C.ar   43  TYR43      -0.0201
      7  CD1        1.6560   38.9910   61.9480 C.ar   43  TYR43      -0.0009
      8  CD2        3.7700   39.4780   62.9660 C.ar   43  TYR43      -0.0009
      9  CE1        1.5760   37.8040   62.6360 C.ar   43  TYR43       0.0417
     10  CE2        3.7140   38.2600   63.6580 C.ar   43  TYR43       0.0417
     11  CZ         2.6080   37.4260   63.4860 C.ar   43  TYR43       0.1957
     12  OH         2.5170   36.2260   64.1650 O.3    43  TYR43      -0.2866
     13  N         -0.6020   28.2630   58.3390 N.3    98  PHE98      -0.1227
     14  CA         0.7430   28.7320   58.6500 C.3    98  PHE98       0.1736
     15  C          1.1410   29.9790   57.8690 C.2    98  PHE98       0.2596
     16  O          2.3140   30.3650   57.8420 O.2    98  PHE98      -0.2718
     17  CB         1.7660   27.5990   58.4600 C.3    98  PHE98       0.0547
     18  CG         1.5160   26.4200   59.3590 C.ar   98  PHE98      -0.0202
     19  CD1        2.1680   26.3140   60.5830 C.ar   98  PHE98      -0.0042
     20  CD2        0.6010   25.4370   58.9960 C.ar   98  PHE98      -0.0042
     21  CE1        1.9220   25.2330   61.4220 C.ar   98  PHE98      -0.0003
     22  CE2        0.3460   24.3610   59.8250 C.ar   98  PHE98      -0.0003
     23  CZ         1.0040   24.2560   61.0400 C.ar   98  PHE98      -0.0000
     24  N          0.1590   30.6100   57.2420 N.am   99  GLY99      -0.1942
     25  CA         0.3810   31.9270   56.6750 C.3    99  GLY99       0.2014
     26  C          0.1820   33.0460   57.6740 C.2    99  GLY99       0.2639
     27  O         -0.4960   32.8850   58.6900 O.2    99  GLY99      -0.2714
     28  N          0.7910   34.1930   57.3950 N.am  100  THR100     -0.1950
     29  CA         0.5510   35.3670   58.1960 C.3   100  THR100      0.1897
     30  C          0.3930   36.5640   57.2760 C.2   100  THR100      0.2313
     31  O          0.8250   36.5310   56.1210 O.2   100  THR100     -0.2863
     32  CB         1.7090   35.5910   59.2060 C.3   100  THR100      0.1794
     33  OG1        2.9450   35.7570   58.5050 O.3   100  THR100     -0.2208
     34  CG2        1.9710   34.3380   60.0290 C.3   100  THR100      0.0378
     35  N          2.0970   39.5510   56.8370 N.3   102  HIS102     -0.1241
     36  CA         3.3770   40.0180   57.3620 C.3   102  HIS102      0.1621
     37  C          3.8380   41.3820   56.7880 C.2   102  HIS102      0.2264
     38  O          4.6860   42.0270   57.3800 O.2   102  HIS102     -0.2867
     39  CB         4.4870   38.9510   57.1850 C.3   102  HIS102      0.0745
     40  CG         5.7060   39.1780   58.0450 C.ar  102  HIS102      0.0817
     41  ND1        6.9750   39.3310   57.5160 N.ar  102  HIS102     -0.2268
     42  CD2        5.8480   39.2740   59.3900 C.ar  102  HIS102      0.1154
     43  CE1        7.8460   39.5120   58.4980 C.ar  102  HIS102      0.1986
     44  NE2        7.1890   39.4730   59.6450 N.ar  102  HIS102     -0.2212
     45  N          6.9640   46.2180   62.9940 N.3   122  ASN122     -0.1240
     46  CA         5.6450   46.1180   63.6010 C.3   122  ASN122      0.1653
     47  C          5.2700   47.4350   64.2900 C.2   122  ASN122      0.2266
     48  O          6.1300   48.2420   64.6300 O.2   122  ASN122     -0.2867
     49  CB         5.6060   44.9960   64.6380 C.3   122  ASN122      0.1155
     50  CG         5.6720   43.6260   64.0090 C.2   122  ASN122      0.2627
     51  OD1        4.6660   43.1020   63.5230 O.2   122  ASN122     -0.2716
     52  ND2        6.8560   43.0470   63.9970 N.am  122  ASN122     -0.0877
     53  N         13.8290   35.8450   61.0050 N.3   239  SER239     -0.1202
     54  CA        13.0670   34.6340   61.3000 C.3   239  SER239      0.2020
     55  C         13.4380   33.5820   60.2660 C.2   239  SER239      0.2619
     56  O         13.7960   33.9310   59.1500 O.2   239  SER239     -0.2717
     57  CB        11.5690   34.9210   61.2840 C.3   239  SER239      0.2103
     58  OG        10.7980   33.7420   61.4730 O.3   239  SER239     -0.2182
     59  N         13.3860   32.3040   60.6490 N.am  240  VAL240     -0.1965
     60  CA        13.8470   31.2030   59.7900 C.3   240  VAL240      0.1727
     61  C         12.8050   30.0570   59.7250 C.2   240  VAL240      0.2617
     62  O         12.4240   29.4890   60.7630 O.2   240  VAL240     -0.2715
     63  CB        15.1820   30.6000   60.3130 C.3   240  VAL240      0.0290
     64  CG1       15.7280   29.5490   59.3390 C.3   240  VAL240      0.0023
     65  CG2       16.2130   31.6810   60.6080 C.3   240  VAL240      0.0023
     66  N         12.3440   29.7160   58.5220 N.am  241  GLY241     -0.1940
     67  CA        11.3290   28.6780   58.3830 C.3   241  GLY241      0.2014
     68  C         11.9940   27.3090   58.3510 C.2   241  GLY241      0.2639
     69  O         13.2050   27.2470   58.4500 O.2   241  GLY241     -0.2714
     70  N         11.2350   26.2150   58.2240 N.am  242  SER242     -0.1949
     71  CA        11.9090   24.9310   57.9720 C.3   242  SER242      0.1924
     72  C         12.1260   24.7390   56.4830 C.2   242  SER242      0.2314
     73  O         11.2030   24.7650   55.7040 O.2   242  SER242     -0.2863
     74  CB        11.2300   23.7320   58.6500 C.3   242  SER242      0.2116
     75  OG         9.9330   23.5410   58.1610 O.3   242  SER242     -0.2180
     76  N         12.2940   34.7800   66.3260 N.3   291  PRO291     -0.2116
     77  CA        11.5590   33.5920   66.7680 C.3   291  PRO291      0.1372
     78  C         11.9650   32.2560   66.1200 C.2   291  PRO291      0.2244
     79  O         11.0740   31.5090   65.7300 O.2   291  PRO291     -0.2868
     80  CB        10.1220   33.9400   66.3990 C.3   291  PRO291      0.0268
     81  CG        10.2660   34.8010   65.1800 C.3   291  PRO291      0.0207
     82  CD        11.5530   35.5650   65.3280 C.3   291  PRO291      0.0892
     83  N         12.8080   28.5850   66.4370 N.3   293  SER293     -0.1217
     84  CA        12.5010   27.6090   67.4860 C.3   293  SER293      0.1889
     85  C         13.4420   26.4270   67.3920 C.2   293  SER293      0.2288
     86  O         13.8610   26.0750   66.2930 O.2   293  SER293     -0.2866
     87  CB        11.0700   27.0920   67.3340 C.3   293  SER293      0.2089
     88  OG        11.0570   26.0360   66.3920 O.3   293  SER293     -0.2183
     89  N         12.4270   23.6950   64.9440 N.3   296  THR296     -0.1218
     90  CA        12.7900   23.9210   63.5510 C.3   296  THR296      0.1862
     91  C         14.2760   23.7030   63.3530 C.2   296  THR296      0.2287
     92  O         14.6870   22.9830   62.4460 O.2   296  THR296     -0.2866
     93  CB        12.4100   25.3350   63.1260 C.3   296  THR296      0.1770
     94  OG1       11.0130   25.5150   63.3520 O.3   296  THR296     -0.2211
     95  CG2       12.5680   25.5100   61.6100 C.3   296  THR296      0.0375
     96  N         15.7210   43.7030   62.7420 N.3   323  HIS323     -0.1241
     97  CA        14.4170   43.2190   62.3990 C.3   323  HIS323      0.1621
     98  C         14.1830   43.5460   60.9290 C.2   323  HIS323      0.2264
     99  O         13.1790   43.1650   60.3370 O.2   323  HIS323     -0.2867
    100  CB        13.3480   43.8440   63.2860 C.3   323  HIS323      0.0745
    101  CG        12.0080   43.2040   63.1390 C.ar  323  HIS323      0.0817
    102  ND1       11.0220   43.7190   62.3200 N.ar  323  HIS323     -0.2268
    103  CD2       11.5020   42.0650   63.6730 C.ar  323  HIS323      0.1154
    104  CE1        9.9560   42.9340   62.3780 C.ar  323  HIS323      0.1986
    105  NE2       10.2170   41.9300   63.2010 N.ar  323  HIS323     -0.2212
    106  N         11.0920   37.0910   55.5990 N.3   346  ASN346     -0.1240
    107  CA        12.1800   36.3570   56.2270 C.3   346  ASN346      0.1653
    108  C         12.6380   35.1560   55.3980 C.2   346  ASN346      0.2266
    109  O         12.1990   34.9680   54.2620 O.2   346  ASN346     -0.2867
    110  CB        11.8020   35.9370   57.6420 C.3   346  ASN346      0.1155
    111  CG        11.6400   37.1130   58.5460 C.2   346  ASN346      0.2627
    112  OD1       12.6220   37.7290   58.9550 O.2   346  ASN346     -0.2716
    113  ND2       10.4060   37.4590   58.8490 N.am  346  ASN346     -0.0877
    114  N         11.9710   32.0570   54.6890 N.3   348  SER348     -0.1202
    115  CA        10.9890   30.9830   54.8420 C.3   348  SER348      0.2020
    116  C         10.2660   30.7180   53.5310 C.2   348  SER348      0.2619
    117  O         10.1010   31.6290   52.7070 O.2   348  SER348     -0.2717
    118  CB         9.9670   31.3400   55.9250 C.3   348  SER348      0.2103
    119  OG         9.0170   32.2300   55.3830 O.3   348  SER348     -0.2182
    120  N          9.8410   29.4650   53.3410 N.am  349  LYS349     -0.1965
    121  CA         9.0090   29.0900   52.2090 C.3   349  LYS349      0.1728
    122  C          7.6420   29.7520   52.2770 C.2   349  LYS349      0.2616
    123  O          7.0510   30.0800   51.2570 O.2   349  LYS349     -0.2715
    124  CB         8.8400   27.5760   52.1760 C.3   349  LYS349      0.0311
    125  CG        10.0660   26.8410   51.6630 C.3   349  LYS349      0.0038
    126  CD        10.2680   25.5230   52.3830 C.3   349  LYS349      0.0206
    127  CE         9.4770   24.3980   51.7420 C.3   349  LYS349      0.1093
    128  NZ        10.0920   23.0670   52.0800 N.3   349  LYS349     -0.1314
    129  N          7.1460   29.9610   53.4880 N.am  350  ALA350     -0.1963
    130  CA         5.8730   30.6220   53.6700 C.3   350  ALA350      0.1728
    131  C          5.8620   31.9840   52.9760 C.2   350  ALA350      0.2616
    132  O          4.8960   32.3320   52.2830 O.2   350  ALA350     -0.2715
    133  CB         5.5880   30.7890   55.1560 C.3   350  ALA350      0.0334
    134  N          6.9390   32.7400   53.1930 N.am  351  ALA351     -0.1977
    135  CA         7.0980   34.1110   52.6930 C.3   351  ALA351      0.1597
    136  C          7.4970   34.1640   51.2300 C.2   351  ALA351      0.2287
    137  O          7.0010   35.0020   50.4670 O.2   351  ALA351     -0.2864
    138  CB         8.1620   34.8540   53.5260 C.3   351  ALA351      0.0319
    139  N          2.2040   31.1980   51.3650 N.3   365  ARG365     -0.1231
    140  CA         1.2880   31.1720   52.5020 C.3   365  ARG365      0.1694
    141  C          0.9980   32.5690   53.0600 C.2   365  ARG365      0.2592
    142  O         -0.0460   32.7930   53.6720 O.2   365  ARG365     -0.2718
    143  CB         1.8850   30.3340   53.6330 C.3   365  ARG365      0.0321
    144  CG         2.2750   28.9140   53.2820 C.3   365  ARG365      0.0489
    145  CD         2.6900   28.1020   54.4960 C.3   365  ARG365      0.2205
    146  NE         3.2470   26.7980   54.1460 N.pl3 365  ARG365     -0.0865
    147  CZ         2.5580   25.6490   54.1830 C.cat 365  ARG365      0.5346
    148  NH1        1.2750   25.6490   54.5320 N.pl3 365  ARG365      0.1354
    149  NH2        3.1530   24.5020   53.8700 N.pl3 365  ARG365      0.1354
    150  N          1.9390   33.4910   52.8840 N.am  366  SER366     -0.1952
    151  CA         1.8720   34.7760   53.5800 C.3   366  SER366      0.1924
    152  C          1.7460   35.9990   52.6720 C.2   366  SER366      0.2314
    153  O          2.0210   35.9230   51.4870 O.2   366  SER366     -0.2863
    154  CB         3.1170   34.9210   54.4480 C.3   366  SER366      0.2116
    155  OG         3.1010   33.9910   55.5180 O.3   366  SER366     -0.2180
    156  N          3.6450   39.5270   52.0700 N.3   368  GLU368     -0.1245
    157  CA         4.9650   40.1360   52.2540 C.3   368  GLU368      0.1567
    158  C          5.1020   41.2110   51.1800 C.2   368  GLU368      0.2260
    159  O          4.4950   41.0910   50.1150 O.2   368  GLU368     -0.2867
    160  CB         6.0910   39.0920   52.0370 C.3   368  GLU368      0.0388
    161  CG         6.0160   37.8330   52.9190 C.3   368  GLU368      0.1160
    162  CD         6.4680   38.0630   54.3590 C.2   368  GLU368      0.3649
    163  OE1        6.4620   37.1010   55.1660 O.co2 368  GLU368     -0.2457
    164  OE2        6.8260   39.2060   54.7070 O.co2 368  GLU368     -0.2457
    165  N         15.0230   30.8960   70.1370 N.3   412  TRP412     -0.1241
    166  CA        14.2960   31.6270   71.1740 C.3   412  TRP412      0.1605
    167  C         13.7320   30.8430   72.3540 C.2   412  TRP412      0.2264
    168  O         13.5610   31.4060   73.4340 O.2   412  TRP412     -0.2867
    169  CB        13.2380   32.5700   70.5840 C.3   412  TRP412      0.0550
    170  CG        11.9600   31.9170   70.1040 C.ar  412  TRP412      0.0003
    171  CD1       11.7850   30.6230   69.6970 C.ar  412  TRP412      0.0946
    172  CD2       10.6790   32.5550   69.9600 C.ar  412  TRP412      0.0152
    173  NE1       10.4790   30.4130   69.3190 N.ar  412  TRP412     -0.2442
    174  CE2        9.7760   31.5820   69.4680 C.ar  412  TRP412      0.0810
    175  CE3       10.1950   33.8630   70.2000 C.ar  412  TRP412      0.0012
    176  CZ2        8.4210   31.8730   69.2130 C.ar  412  TRP412      0.0191
    177  CZ3        8.8510   34.1440   69.9580 C.ar  412  TRP412      0.0001
    178  CH2        7.9830   33.1580   69.4700 C.ar  412  TRP412      0.0015
@<TRIPOS>BOND
     1   159   158    2
     2   137   136    2
     3   158   157    1
     4   136   135    1
     5   123   122    2
     6   139   140    1
     7   153   152    2
     8   125   124    1
     9   125   126    1
    10   127   128    1
    11   127   126    1
    12   160   157    1
    13   160   161    1
    14   156   157    1
    15   124   121    1
    16   121   122    1
    17   121   120    1
    18   122   129   am
    19   132   131    2
    20   140   141    1
    21   140   143    1
    22   152   151    1
    23   135   134    1
    24   135   138    1
    25   117   116    2
    26   150   141   am
    27   150   151    1
    28   161   162    1
    29   131   134   am
    30   131   130    1
    31   141   142    2
    32   144   143    1
    33   144   145    1
    34   120   116   am
    35   129   130    1
    36   116   115    1
    37   151   154    1
    38   130   133    1
    39   149   147    1
    40   146   147    2
    41   146   145    1
    42   147   148    1
    43   109   108    2
    44   162   164   ar
    45   162   163   ar
    46   154   155    1
    47   114   115    1
    48   115   118    1
    49   119   118    1
    50   108   107    1
    51   106   107    1
    52    73    72    2
    53    31    30    2
    54   107   110    1
    55    72    71    1
    56    25    24    1
    57    25    26    1
    58    37    36    1
    59    37    38    2
    60    35    36    1
    61    39    36    1
    62    39    40    1
    63    24    15   am
    64    30    29    1
    65    28    26   am
    66    28    29    1
    67    41    40   ar
    68    41    43   ar
    69   110   111    1
    70    26    27    2
    71    16    15    2
    72    15    14    1
    73    71    70    1
    74    71    74    1
    75    40    42   ar
    76    75    74    1
    77    29    32    1
    78    70    68   am
    79    13    14    1
    80    68    67    1
    81    68    69    2
    82    67    66    1
    83    17    14    1
    84    17    18    1
    85    43    44   ar
    86    33    32    1
    87    66    61   am
    88   111   113   am
    89   111   112    2
    90    20    18   ar
    91    20    22   ar
    92    56    55    2
    93    32    34    1
    94    64    63    1
    95    18    19   ar
    96    42    44   ar
    97    61    60    1
    98    61    62    2
    99    60    63    1
   100    60    59    1
   101    22    23   ar
   102    55    59   am
   103    55    54    1
   104    63    65    1
   105    99    98    2
   106    19    21   ar
   107    98    97    1
   108     1     2    1
   109    53    54    1
   110    23    21   ar
   111    57    54    1
   112    57    58    1
   113     5     2    1
   114     5     6    1
   115     2     3    1
   116    95    93    1
   117     7     6   ar
   118     7     9   ar
   119     6     8   ar
   120   102   104   ar
   121   102   101   ar
   122   104   105   ar
   123    97    96    1
   124    97   100    1
   125    92    91    2
   126     9    11   ar
   127     8    10   ar
   128     3     4    2
   129    45    46    1
   130    93    94    1
   131    93    90    1
   132   101   100    1
   133   101   103   ar
   134   105   103   ar
   135    91    90    1
   136    11    10   ar
   137    11    12    1
   138    51    50    2
   139    90    89    1
   140    46    47    1
   141    46    49    1
   142    52    50   am
   143    50    49    1
   144    47    48    2
   145    81    82    1
   146    81    80    1
   147    82    76    1
   148    79    78    2
   149    78    77    1
   150    86    85    2
   151    76    77    1
   152    88    87    1
   153    80    77    1
   154    83    84    1
   155    87    84    1
   156    85    84    1
   157   176   174   ar
   158   176   178   ar
   159   173   174   ar
   160   173   171   ar
   161   174   172   ar
   162   178   177   ar
   163   171   170   ar
   164   177   175   ar
   165   172   170   ar
   166   172   175   ar
   167   170   169    1
   168   165   166    1
   169   169   166    1
   170   166   167    1
   171   167   168    2
