@<TRIPOS>MOLECULE
tmp/1rhjB00.pdb
 128 130 0 0 0
SMALL
GASTEIGER

@<TRIPOS>ATOM
      1  N        -94.2870   23.6720   53.5320 N.3    19  TYR19      -0.1227
      2  CA       -94.8060   24.1960   52.2790 C.3    19  TYR19       0.1736
      3  C        -96.2680   24.5340   52.5440 C.2    19  TYR19       0.2596
      4  O        -96.8600   24.0460   53.5090 O.2    19  TYR19      -0.2718
      5  CB       -94.7830   23.1140   51.2040 C.3    19  TYR19       0.0548
      6  CG       -93.4670   22.8560   50.5030 C.ar   19  TYR19      -0.0200
      7  CD1      -92.9460   23.7770   49.5940 C.ar   19  TYR19      -0.0009
      8  CD2      -92.8110   21.6300   50.6470 C.ar   19  TYR19      -0.0009
      9  CE1      -91.8150   23.4790   48.8320 C.ar   19  TYR19       0.0417
     10  CE2      -91.6820   21.3210   49.8890 C.ar   19  TYR19       0.0417
     11  CZ       -91.1930   22.2480   48.9830 C.ar   19  TYR19       0.1957
     12  OH       -90.0940   21.9370   48.2130 O.3    19  TYR19      -0.2866
     13  N        -96.8460   25.3560   51.6770 N.am   20  SER20      -0.1938
     14  CA       -98.2580   25.7220   51.7780 C.3    20  SER20       0.2055
     15  C        -98.8600   25.5170   50.3880 C.2    20  SER20       0.2643
     16  O        -98.3340   26.0320   49.3980 O.2    20  SER20      -0.2714
     17  CB       -98.4150   27.1760   52.2080 C.3    20  SER20       0.2130
     18  OG       -99.7870   27.5030   52.3320 O.3    20  SER20      -0.2179
     19  N        -99.9630   24.7780   50.3140 N.am   21  TRP21      -0.1959
     20  CA      -100.5840   24.4670   49.0280 C.3    21  TRP21       0.1771
     21  C       -101.6750   25.3870   48.4930 C.2    21  TRP21       0.2620
     22  O       -102.4870   25.9420   49.2360 O.2    21  TRP21      -0.2715
     23  CB      -101.1140   23.0340   49.0430 C.3    21  TRP21       0.0590
     24  CG      -100.0590   21.9980   49.2200 C.ar   21  TRP21       0.0006
     25  CD1      -99.5810   21.5090   50.3990 C.ar   21  TRP21       0.0946
     26  CD2      -99.3630   21.2970   48.1820 C.ar   21  TRP21       0.0152
     27  NE1      -98.6330   20.5410   50.1630 N.ar   21  TRP21      -0.2442
     28  CE2      -98.4790   20.3910   48.8100 C.ar   21  TRP21       0.0810
     29  CE3      -99.3990   21.3450   46.7800 C.ar   21  TRP21       0.0012
     30  CZ2      -97.6370   19.5370   48.0840 C.ar   21  TRP21       0.0191
     31  CZ3      -98.5600   20.4960   46.0590 C.ar   21  TRP21       0.0001
     32  CH2      -97.6920   19.6050   46.7150 C.ar   21  TRP21       0.0015
     33  N       -101.6890   25.5070   47.1700 N.am   22  ARG22      -0.1963
     34  CA      -102.6360   26.3490   46.4580 C.3    22  ARG22       0.1729
     35  C       -103.1950   25.5840   45.2570 C.2    22  ARG22       0.2616
     36  O       -102.4510   24.9060   44.5510 O.2    22  ARG22      -0.2715
     37  CB      -101.9250   27.6110   45.9600 C.3    22  ARG22       0.0348
     38  CG      -102.8390   28.6170   45.2890 C.3    22  ARG22       0.0492
     39  CD      -102.0570   29.7510   44.6410 C.3    22  ARG22       0.2205
     40  NE      -101.4450   29.3310   43.3840 N.pl3  22  ARG22      -0.0865
     41  CZ      -100.1910   28.9140   43.2530 C.cat  22  ARG22       0.5346
     42  NH1      -99.3910   28.8630   44.3050 N.pl3  22  ARG22       0.1354
     43  NH2      -99.7430   28.5390   42.0630 N.pl3  22  ARG22       0.1354
     44  N       -104.5000   25.6890   45.0290 N.am   23  ASN23      -0.1958
     45  CA      -105.1240   25.0140   43.8970 C.3    23  ASN23       0.1819
     46  C       -105.2870   26.0230   42.7610 C.2    23  ASN23       0.2622
     47  O       -105.7470   27.1450   42.9710 O.2    23  ASN23      -0.2715
     48  CB      -106.4790   24.4270   44.3070 C.3    23  ASN23       0.1195
     49  CG      -107.2240   23.8000   43.1370 C.2    23  ASN23       0.2630
     50  OD1     -107.7620   24.5010   42.2840 O.2    23  ASN23      -0.2716
     51  ND2     -107.2450   22.4710   43.0890 N.am   23  ASN23      -0.0877
     52  N       -104.8950   25.6120   41.5600 N.am   24  SER24      -0.1950
     53  CA      -104.9440   26.4600   40.3670 C.3    24  SER24       0.1924
     54  C       -106.2540   27.1750   40.0680 C.2    24  SER24       0.2314
     55  O       -106.2410   28.2880   39.5530 O.2    24  SER24      -0.2863
     56  CB      -104.5490   25.6410   39.1400 C.3    24  SER24       0.2116
     57  OG      -103.2490   25.1030   39.2970 O.3    24  SER24      -0.2180
     58  N       -105.8100   28.9530   47.2760 N.3    28  SER28      -0.1202
     59  CA      -105.1150   28.2150   48.3310 C.3    28  SER28       0.2020
     60  C       -106.0970   27.5090   49.2550 C.2    28  SER28       0.2618
     61  O       -107.1980   28.0030   49.5050 O.2    28  SER28      -0.2717
     62  CB      -104.2410   29.1590   49.1610 C.3    28  SER28       0.2103
     63  OG      -105.0310   30.1100   49.8520 O.3    28  SER28      -0.2182
     64  N       -105.6910   26.3490   49.7620 N.am   29  TRP29      -0.1975
     65  CA      -106.5400   25.5800   50.6650 C.3    29  TRP29       0.1640
     66  C       -106.9120   26.4010   51.8930 C.2    29  TRP29       0.2290
     67  O       -108.0590   26.3800   52.3520 O.2    29  TRP29      -0.2864
     68  CB      -105.8130   24.3310   51.1440 C.3    29  TRP29       0.0576
     69  CG      -105.3440   23.4190   50.0660 C.ar   29  TRP29       0.0006
     70  CD1     -105.6610   23.4740   48.7330 C.ar   29  TRP29       0.0946
     71  CD2     -104.5170   22.2640   50.2360 C.ar   29  TRP29       0.0152
     72  NE1     -105.0850   22.4170   48.0720 N.ar   29  TRP29      -0.2442
     73  CE2     -104.3800   21.6570   48.9700 C.ar   29  TRP29       0.0810
     74  CE3     -103.8840   21.6760   51.3430 C.ar   29  TRP29       0.0012
     75  CZ2     -103.6290   20.4940   48.7760 C.ar   29  TRP29       0.0191
     76  CZ3     -103.1360   20.5170   51.1500 C.ar   29  TRP29       0.0001
     77  CH2     -103.0180   19.9370   49.8760 C.ar   29  TRP29       0.0015
     78  N       -105.8680   17.4080   50.1460 N.3    63  GLU63      -0.1231
     79  CA      -104.7150   16.5490   49.9120 C.3    63  GLU63       0.1699
     80  C       -104.2130   16.8740   48.5080 C.2    63  GLU63       0.2593
     81  O       -105.0120   17.1120   47.5990 O.2    63  GLU63      -0.2718
     82  CB      -105.0890   15.0680   50.0040 C.3    63  GLU63       0.0402
     83  CG      -103.8900   14.1470   49.8440 C.3    63  GLU63       0.1161
     84  CD      -104.2540   12.6820   49.9780 C.2    63  GLU63       0.3649
     85  OE1     -104.7780   12.2930   51.0460 O.co2  63  GLU63      -0.2457
     86  OE2     -104.0150   11.9220   49.0140 O.co2  63  GLU63      -0.2457
     87  N       -102.8960   16.8940   48.3270 N.am   64  SER64      -0.1938
     88  CA      -102.3330   17.2140   47.0180 C.3    64  SER64       0.2055
     89  C       -102.4080   16.0430   46.0470 C.2    64  SER64       0.2643
     90  O       -102.2810   14.8820   46.4420 O.2    64  SER64      -0.2714
     91  CB      -100.8700   17.6630   47.1520 C.3    64  SER64       0.2130
     92  OG      -100.0260   16.5830   47.5260 O.3    64  SER64      -0.2179
     93  N       -102.6250   16.3690   44.7760 N.am   65  PHE65      -0.1959
     94  CA      -102.6890   15.3820   43.7070 C.3    65  PHE65       0.1771
     95  C       -101.6990   15.8300   42.6480 C.2    65  PHE65       0.2620
     96  O       -101.9170   16.8380   41.9830 O.2    65  PHE65      -0.2715
     97  CB      -104.0920   15.3050   43.1040 C.3    65  PHE65       0.0574
     98  CG      -104.1830   14.3830   41.9190 C.ar   65  PHE65      -0.0200
     99  CD1     -103.9270   14.8500   40.6340 C.ar   65  PHE65      -0.0042
    100  CD2     -104.4720   13.0300   42.0930 C.ar   65  PHE65      -0.0042
    101  CE1     -103.9550   13.9810   39.5390 C.ar   65  PHE65      -0.0003
    102  CE2     -104.5000   12.1590   41.0080 C.ar   65  PHE65      -0.0003
    103  CZ      -104.2400   12.6360   39.7290 C.ar   65  PHE65      -0.0000
    104  N       -100.6120   15.0830   42.4940 N.am   66  SER66      -0.1950
    105  CA       -99.5780   15.4420   41.5270 C.3    66  SER66       0.1924
    106  C        -99.0050   14.2390   40.7870 C.2    66  SER66       0.2314
    107  O        -98.8530   13.1600   41.3620 O.2    66  SER66      -0.2863
    108  CB       -98.4420   16.1840   42.2450 C.3    66  SER66       0.2116
    109  OG       -97.3560   16.4450   41.3720 O.3    66  SER66      -0.2180
    110  N        -96.2060   14.0960   39.9980 N.3    68  ASP68      -0.1239
    111  CA       -94.8660   14.0410   40.5830 C.3    68  ASP68       0.1674
    112  C        -94.9570   13.3760   41.9590 C.2    68  ASP68       0.2266
    113  O        -95.4420   13.9810   42.9160 O.2    68  ASP68      -0.2867
    114  CB       -94.3040   15.4550   40.7380 C.3    68  ASP68       0.1410
    115  CG       -92.8750   15.4650   41.2570 C.2    68  ASP68       0.3668
    116  OD1      -92.4340   14.4440   41.8340 O.co2  68  ASP68      -0.2456
    117  OD2      -92.1960   16.5040   41.0940 O.co2  68  ASP68      -0.2456
    118  N        -94.4870   15.3160   45.2640 N.3    71  PHE71      -0.1241
    119  CA       -95.4970   16.2310   45.7690 C.3    71  PHE71       0.1605
    120  C        -96.9030   15.6590   45.7950 C.2    71  PHE71       0.2264
    121  O        -97.8730   16.4050   45.9290 O.2    71  PHE71      -0.2867
    122  CB       -95.4930   17.5190   44.9410 C.3    71  PHE71       0.0534
    123  CG       -94.2140   18.2960   45.0380 C.ar   71  PHE71      -0.0203
    124  CD1      -93.1990   18.1190   44.1040 C.ar   71  PHE71      -0.0042
    125  CD2      -94.0140   19.1960   46.0810 C.ar   71  PHE71      -0.0042
    126  CE1      -92.0010   18.8280   44.2090 C.ar   71  PHE71      -0.0003
    127  CE2      -92.8210   19.9080   46.1930 C.ar   71  PHE71      -0.0003
    128  CZ       -91.8130   19.7220   45.2530 C.ar   71  PHE71      -0.0000
@<TRIPOS>BOND
     1    56    57    1
     2    56    53    1
     3   101   103   ar
     4   101    99   ar
     5    55    54    2
     6   103   102   ar
     7   110   111    1
     8    54    53    1
     9    53    52    1
    10   111   114    1
    11   111   112    1
    12    99    98   ar
    13   114   115    1
    14   106   107    2
    15   106   105    1
    16   102   100   ar
    17   117   115   ar
    18   115   116   ar
    19   109   108    1
    20   105   108    1
    21   105   104    1
    22    52    46   am
    23    98   100   ar
    24    98    97    1
    25   112   113    2
    26    96    95    2
    27    43    41    1
    28    50    49    2
    29   104    95   am
    30    95    94    1
    31    46    47    2
    32    46    45    1
    33    51    49   am
    34    97    94    1
    35    49    48    1
    36    41    40    2
    37    41    42    1
    38    40    39    1
    39    94    93    1
    40    45    48    1
    41    45    44    1
    42   124   126   ar
    43   124   123   ar
    44   126   128   ar
    45    36    35    2
    46    39    38    1
    47    93    89   am
    48   122   123    1
    49   122   119    1
    50    44    35   am
    51   123   125   ar
    52   128   127   ar
    53    35    34    1
    54   118   119    1
    55    38    37    1
    56   119   120    1
    57   120   121    2
    58    37    34    1
    59    89    90    2
    60    89    88    1
    61    31    32   ar
    62    31    29   ar
    63   125   127   ar
    64    34    33    1
    65    32    30   ar
    66    29    26   ar
    67    88    91    1
    68    88    87    1
    69    91    92    1
    70    33    21   am
    71    58    59    1
    72    81    80    2
    73    72    70   ar
    74    72    73   ar
    75    30    28   ar
    76    26    28   ar
    77    26    24   ar
    78    12    11    1
    79    87    80   am
    80    59    62    1
    81    59    60    1
    82    21    20    1
    83    21    22    2
    84    80    79    1
    85    70    69   ar
    86    75    73   ar
    87    75    77   ar
    88    28    27   ar
    89     9    11   ar
    90     9     7   ar
    91    73    71   ar
    92    11    10   ar
    93    86    84   ar
    94    20    23    1
    95    20    19    1
    96    23    24    1
    97    62    63    1
    98    24    25   ar
    99    60    61    2
   100    60    64   am
   101    16    15    2
   102     7     6   ar
   103    64    65    1
   104    83    84    1
   105    83    82    1
   106    77    76   ar
   107    10     8   ar
   108    79    82    1
   109    79    78    1
   110    84    85   ar
   111    69    71   ar
   112    69    68    1
   113    27    25   ar
   114    71    74   ar
   115    19    15   am
   116    15    14    1
   117     6     8   ar
   118     6     5    1
   119    65    68    1
   120    65    66    1
   121    76    74   ar
   122     5     2    1
   123    13    14    1
   124    13     3   am
   125    14    17    1
   126    66    67    2
   127    17    18    1
   128     2     3    1
   129     2     1    1
   130     3     4    2
