@<TRIPOS>MOLECULE
tmp/1rhjA00.pdb
 105 100 0 0 0
SMALL
GASTEIGER

@<TRIPOS>ATOM
      1  N        -89.2920   32.6220   40.5990 N.3    28  MET28      -0.1230
      2  CA       -90.5550   32.2840   41.2460 C.3    28  MET28       0.1702
      3  C        -91.6330   32.0940   40.1840 C.2    28  MET28       0.2593
      4  O        -91.7590   32.9010   39.2610 O.2    28  MET28      -0.2718
      5  CB       -90.9800   33.3950   42.2180 C.3    28  MET28       0.0401
      6  CG       -90.1640   33.4850   43.5030 C.3    28  MET28       0.0596
      7  SD       -90.3470   32.0260   44.5550 S.3    28  MET28      -0.1393
      8  CE       -88.8180   31.1400   44.1820 C.3    28  MET28       0.0692
      9  N        -92.4100   31.0260   40.3270 N.am   29  THR29      -0.1953
     10  CA       -93.4800   30.7180   39.3870 C.3    29  THR29       0.1897
     11  C        -94.7040   31.5970   39.6280 C.2    29  THR29       0.2313
     12  O        -94.8730   32.1620   40.7090 O.2    29  THR29      -0.2863
     13  CB       -93.9010   29.2420   39.5010 C.3    29  THR29       0.1794
     14  OG1      -94.3750   28.9760   40.8280 O.3    29  THR29      -0.2208
     15  CG2      -92.7240   28.3340   39.2000 C.3    29  THR29       0.0378
     16  N        -98.3250   32.4750   40.5830 N.3    31  ARG31      -0.1245
     17  CA       -99.2460   31.8360   41.5230 C.3    31  ARG31       0.1563
     18  C       -100.6950   31.7730   41.0430 C.2    31  ARG31       0.2260
     19  O       -101.5620   32.4900   41.5550 O.2    31  ARG31      -0.2867
     20  CB       -99.1760   32.5410   42.8850 C.3    31  ARG31       0.0307
     21  CG       -97.7720   32.5660   43.4940 C.3    31  ARG31       0.0489
     22  CD       -97.7210   33.3050   44.8400 C.3    31  ARG31       0.2205
     23  NE       -98.6270   32.7090   45.8170 N.pl3  31  ARG31      -0.0865
     24  CZ       -99.7870   33.2410   46.1890 C.cat  31  ARG31       0.5346
     25  NH1     -100.1960   34.3970   45.6770 N.pl3  31  ARG31       0.1354
     26  NH2     -100.5530   32.6030   47.0570 N.pl3  31  ARG31       0.1354
     27  N        -98.4970   35.3020   48.5680 N.3    87  SER87      -0.1202
     28  CA       -97.3010   35.2610   47.7410 C.3    87  SER87       0.2020
     29  C        -96.4660   34.0420   48.0920 C.2    87  SER87       0.2619
     30  O        -96.9220   33.1560   48.8150 O.2    87  SER87      -0.2717
     31  CB       -96.4820   36.5370   47.9790 C.3    87  SER87       0.2103
     32  OG       -95.3030   36.5710   47.1990 O.3    87  SER87      -0.2182
     33  N        -95.2510   33.9900   47.5540 N.am   88  HIS88      -0.1961
     34  CA       -94.3320   32.9010   47.8570 C.3    88  HIS88       0.1787
     35  C        -93.6430   33.3200   49.1480 C.2    88  HIS88       0.2621
     36  O        -93.7430   34.4810   49.5620 O.2    88  HIS88      -0.2715
     37  CB       -93.2700   32.7460   46.7650 C.3    88  HIS88       0.0785
     38  CG       -93.7880   32.1780   45.4820 C.ar   88  HIS88       0.0821
     39  ND1      -94.2830   30.8960   45.3800 N.ar   88  HIS88      -0.2267
     40  CD2      -93.8680   32.7120   44.2390 C.ar   88  HIS88       0.1154
     41  CE1      -94.6440   30.6640   44.1310 C.ar   88  HIS88       0.1986
     42  NE2      -94.4020   31.7500   43.4180 N.ar   88  HIS88      -0.2212
     43  N        -92.9420   32.3860   49.7800 N.am   89  GLY89      -0.1940
     44  CA       -92.2520   32.7250   51.0060 C.3    89  GLY89       0.2014
     45  C        -91.3800   31.6280   51.5660 C.2    89  GLY89       0.2638
     46  O        -91.3410   30.5130   51.0490 O.2    89  GLY89      -0.2714
     47  N        -90.6670   31.9770   52.6300 N.am   90  GLU90      -0.1977
     48  CA       -89.7800   31.0740   53.3570 C.3    90  GLU90       0.1602
     49  C        -90.1530   31.3450   54.8070 C.2    90  GLU90       0.2287
     50  O        -91.0110   32.1870   55.0750 O.2    90  GLU90      -0.2864
     51  CB       -88.3180   31.4720   53.1700 C.3    90  GLU90       0.0415
     52  CG       -87.8130   31.5580   51.7470 C.3    90  GLU90       0.1163
     53  CD       -86.5110   32.3500   51.6670 C.2    90  GLU90       0.3649
     54  OE1      -85.5890   32.0760   52.4690 O.co2  90  GLU90      -0.2457
     55  OE2      -86.4080   33.2490   50.8060 O.co2  90  GLU90      -0.2457
     56  N        -92.3620   37.0820   49.6610 N.3    95  PHE95      -0.1241
     57  CA       -91.7490   37.7090   48.4950 C.3    95  PHE95       0.1605
     58  C        -92.5050   38.8120   47.7750 C.2    95  PHE95       0.2264
     59  O        -93.6880   38.6730   47.4530 O.2    95  PHE95      -0.2867
     60  CB       -91.3820   36.6510   47.4460 C.3    95  PHE95       0.0534
     61  CG       -90.1410   35.8820   47.7640 C.ar   95  PHE95      -0.0203
     62  CD1      -90.1640   34.8460   48.6900 C.ar   95  PHE95      -0.0042
     63  CD2      -88.9400   36.1980   47.1400 C.ar   95  PHE95      -0.0042
     64  CE1      -89.0070   34.1340   48.9890 C.ar   95  PHE95      -0.0003
     65  CE2      -87.7780   35.4910   47.4340 C.ar   95  PHE95      -0.0003
     66  CZ       -87.8110   34.4590   48.3580 C.ar   95  PHE95      -0.0000
     67  N       -100.6100   33.6110   53.5440 N.3   128  GLN128     -0.1231
     68  CA      -100.6660   32.4400   52.6760 C.3   128  GLN128      0.1698
     69  C        -99.3520   32.4400   51.9160 C.2   128  GLN128      0.2592
     70  O        -99.1580   33.2180   50.9780 O.2   128  GLN128     -0.2718
     71  CB      -101.8490   32.5250   51.7040 C.3   128  GLN128      0.0381
     72  CG      -101.8190   31.5160   50.5510 C.3   128  GLN128      0.0905
     73  CD      -101.6480   30.0840   51.0260 C.2   128  GLN128      0.2608
     74  OE1     -102.3760   29.6140   51.9040 O.2   128  GLN128     -0.2717
     75  NE2     -100.6810   29.3770   50.4420 N.am  128  GLN128     -0.0878
     76  N        -98.4430   31.5790   52.3560 N.am  129  ALA129     -0.1966
     77  CA       -97.1270   31.4480   51.7470 C.3   129  ALA129      0.1728
     78  C        -96.3980   30.3140   52.4420 C.2   129  ALA129      0.2616
     79  O        -96.7720   29.9090   53.5420 O.2   129  ALA129     -0.2715
     80  CB       -96.3320   32.7460   51.8900 C.3   129  ALA129      0.0334
     81  N        -95.3630   29.8010   51.7900 N.am  130  CYS130     -0.1968
     82  CA       -94.5810   28.7120   52.3430 C.3   130  CYS130      0.1712
     83  C        -93.6950   29.2230   53.4700 C.2   130  CYS130      0.2296
     84  O        -93.3220   30.4020   53.4990 O.2   130  CYS130     -0.2864
     85  CB       -93.7350   28.0560   51.2390 C.3   130  CYS130      0.0983
     86  SG       -94.6260   27.3370   49.8360 S.3   130  CYS130     -0.0798
     87  N        -91.1130   27.0600   54.4030 N.3   132  GLY132     -0.1210
     88  CA       -90.0340   26.0990   54.2970 C.3   132  GLY132      0.1956
     89  C        -90.2730   25.1250   53.1630 C.2   132  GLY132      0.2612
     90  O        -91.0980   25.3780   52.2820 O.2   132  GLY132     -0.2717
     91  N        -89.5580   24.0050   53.1890 N.am  133  THR133     -0.1952
     92  CA       -89.6930   22.9980   52.1480 C.3   133  THR133      0.1897
     93  C        -89.9760   21.6090   52.6970 C.2   133  THR133      0.2313
     94  O        -89.6770   20.6120   52.0380 O.2   133  THR133     -0.2863
     95  CB       -88.4250   22.9300   51.2790 C.3   133  THR133      0.1794
     96  OG1      -87.3050   22.5730   52.0990 O.3   133  THR133     -0.2208
     97  CG2      -88.1610   24.2790   50.6140 C.3   133  THR133      0.0378
     98  N        -92.4410   18.5890   53.6680 N.3   135  LEU135     -0.1245
     99  CA       -93.7320   18.1070   53.2010 C.3   135  LEU135      0.1561
    100  C        -94.3690   17.2430   54.2850 C.2   135  LEU135      0.2260
    101  O        -93.6840   16.4960   54.9820 O.2   135  LEU135     -0.2867
    102  CB       -93.5630   17.2970   51.9040 C.3   135  LEU135      0.0270
    103  CG       -93.2310   18.0830   50.6270 C.3   135  LEU135      0.0019
    104  CD1      -92.7520   17.1400   49.5250 C.3   135  LEU135      0.0001
    105  CD2      -94.4580   18.8470   50.1760 C.3   135  LEU135      0.0001
@<TRIPOS>BOND
     1    15    13    1
     2     4     3    2
     3    10    13    1
     4    10    11    1
     5    10     9    1
     6    13    14    1
     7    11    12    2
     8     3     9   am
     9     3     2    1
    10    16    17    1
    11     1     2    1
    12    18    17    1
    13    18    19    2
    14     2     5    1
    15    17    20    1
    16     5     6    1
    17    20    21    1
    18    42    41   ar
    19    42    40   ar
    20    21    22    1
    21     6     7    1
    22    41    39   ar
    23     8     7    1
    24    40    38   ar
    25    22    23    1
    26    39    38   ar
    27    38    37    1
    28    25    24    1
    29    23    24    2
    30    24    26    1
    31    37    34    1
    32    63    65   ar
    33    63    61   ar
    34    32    31    1
    35    65    66   ar
    36    60    61    1
    37    60    57    1
    38    59    58    2
    39    33    34    1
    40    33    29   am
    41    28    31    1
    42    28    29    1
    43    28    27    1
    44    61    62   ar
    45    58    57    1
    46    34    35    1
    47    29    30    2
    48    66    64   ar
    49    57    56    1
    50    62    64   ar
    51    35    36    2
    52    35    43   am
    53   104   103    1
    54    43    44    1
    55    86    85    1
    56   105   103    1
    57    75    73   am
    58    72    73    1
    59    72    71    1
    60    97    95    1
    61   103   102    1
    62    55    53   ar
    63    70    69    2
    64    44    45    1
    65    73    74    2
    66    46    45    2
    67    85    82    1
    68    95    96    1
    69    95    92    1
    70    45    47   am
    71    53    52    1
    72    53    54   ar
    73    71    68    1
    74    52    51    1
    75    77    80    1
    76    77    76    1
    77    77    78    1
    78    81    82    1
    79    81    78   am
    80   102    99    1
    81    69    76   am
    82    69    68    1
    83    94    93    2
    84    92    93    1
    85    92    91    1
    86    90    89    2
    87    82    83    1
    88    78    79    2
    89    47    48    1
    90    68    67    1
    91    89    91   am
    92    89    88    1
    93    51    48    1
    94    99    98    1
    95    99   100    1
    96    48    49    1
    97    83    84    2
    98   100   101    2
    99    88    87    1
   100    49    50    2
