@<TRIPOS>MOLECULE
tmp/1rhkA00.pdb
 117 113 0 0 0
SMALL
GASTEIGER

@<TRIPOS>ATOM
      1  N         31.3140   84.7780   21.8030 N.3    28  MET28      -0.1230
      2  CA        31.6910   86.1800   21.6240 C.3    28  MET28       0.1702
      3  C         31.8460   86.9230   22.9590 C.2    28  MET28       0.2593
      4  O         30.9520   86.8730   23.8120 O.2    28  MET28      -0.2718
      5  CB        30.6420   86.8780   20.7470 C.3    28  MET28       0.0401
      6  CG        30.5050   86.2850   19.3460 C.3    28  MET28       0.0596
      7  SD        31.9480   86.6350   18.3190 S.3    28  MET28      -0.1393
      8  CE        33.0000   85.2800   18.7570 C.3    28  MET28       0.0692
      9  N         32.9700   87.6160   23.1370 N.am   29  THR29      -0.1939
     10  CA        33.2140   88.3510   24.3800 C.3    29  THR29       0.2028
     11  C         32.4730   89.6830   24.4460 C.2    29  THR29       0.2643
     12  O         32.1180   90.2580   23.4240 O.2    29  THR29      -0.2714
     13  CB        34.7130   88.6320   24.5820 C.3    29  THR29       0.1808
     14  OG1       35.1680   89.5650   23.5930 O.3    29  THR29      -0.2208
     15  CG2       35.5100   87.3390   24.4670 C.3    29  THR29       0.0379
     16  N         32.2470   90.1690   25.6620 N.am   30  SER30      -0.1935
     17  CA        31.5520   91.4310   25.8660 C.3    30  SER30       0.2055
     18  C         32.3370   92.6210   25.3430 C.2    30  SER30       0.2643
     19  O         33.5560   92.7130   25.5110 O.2    30  SER30      -0.2714
     20  CB        31.2460   91.6390   27.3470 C.3    30  SER30       0.2130
     21  OG        30.2520   90.7340   27.7810 O.3    30  SER30      -0.2179
     22  N         31.6120   93.5400   24.7170 N.am   31  ARG31      -0.1963
     23  CA        32.1970   94.7370   24.1380 C.3    31  ARG31       0.1729
     24  C         32.1190   95.9160   25.1040 C.2    31  ARG31       0.2616
     25  O         31.2790   96.8030   24.9550 O.2    31  ARG31      -0.2715
     26  CB        31.4830   95.0620   22.8230 C.3    31  ARG31       0.0348
     27  CG        31.6530   93.9800   21.7750 C.3    31  ARG31       0.0492
     28  CD        30.9760   94.3390   20.4700 C.3    31  ARG31       0.2205
     29  NE        31.4830   95.5860   19.9080 N.pl3  31  ARG31      -0.0865
     30  CZ        30.8960   96.7740   20.0370 C.cat  31  ARG31       0.5346
     31  NH1       29.7560   96.9010   20.7090 N.pl3  31  ARG31       0.1354
     32  NH2       31.4660   97.8430   19.5020 N.pl3  31  ARG31       0.1354
     33  N         33.0110   95.9130   26.0930 N.am   32  SER32      -0.1950
     34  CA        33.0640   96.9640   27.1050 C.3    32  SER32       0.1924
     35  C         33.3010   98.3510   26.5290 C.2    32  SER32       0.2314
     36  O         33.9690   98.5090   25.5100 O.2    32  SER32      -0.2863
     37  CB        34.1590   96.6620   28.1380 C.3    32  SER32       0.2116
     38  OG        33.7970   95.5760   28.9690 O.3    32  SER32      -0.2180
     39  N         29.0960   96.5880   17.2290 N.3    87  SER87      -0.1202
     40  CA        29.1230   95.1720   17.5900 C.3    87  SER87       0.2020
     41  C         30.3420   94.4190   17.0410 C.2    87  SER87       0.2619
     42  O         31.2770   95.0160   16.5320 O.2    87  SER87      -0.2717
     43  CB        27.8330   94.5130   17.0760 C.3    87  SER87       0.2103
     44  OG        27.7670   93.1410   17.4100 O.3    87  SER87      -0.2182
     45  N         30.3330   93.0970   17.1750 N.am   88  HIS88      -0.1961
     46  CA        31.4090   92.2730   16.6390 C.3    88  HIS88       0.1787
     47  C         31.0870   92.0160   15.1700 C.2    88  HIS88       0.2621
     48  O         29.9450   92.1730   14.7370 O.2    88  HIS88      -0.2715
     49  CB        31.4810   90.9300   17.3620 C.3    88  HIS88       0.0785
     50  CG        32.0500   91.0100   18.7420 C.ar   88  HIS88       0.0821
     51  ND1       33.3630   91.3440   18.9850 N.ar   88  HIS88      -0.2267
     52  CD2       31.4870   90.7780   19.9500 C.ar   88  HIS88       0.1154
     53  CE1       33.5860   91.3120   20.2880 C.ar   88  HIS88       0.1986
     54  NE2       32.4650   90.9710   20.8940 N.ar   88  HIS88      -0.2212
     55  N         32.0880   91.6170   14.3990 N.am   89  GLY89      -0.1940
     56  CA        31.8330   91.3360   13.0010 C.3    89  GLY89       0.2014
     57  C         33.0210   90.7930   12.2390 C.2    89  GLY89       0.2638
     58  O         34.0830   90.5150   12.8050 O.2    89  GLY89      -0.2714
     59  N         32.8110   90.6180   10.9400 N.am   90  GLU90      -0.1977
     60  CA        33.8400   90.1520   10.0300 C.3    90  GLU90       0.1602
     61  C         33.4900   90.8150    8.7130 C.2    90  GLU90       0.2287
     62  O         32.4880   91.5140    8.6210 O.2    90  GLU90      -0.2864
     63  CB        33.7980   88.6410    9.8690 C.3    90  GLU90       0.0415
     64  CG        33.6340   87.9060   11.1680 C.3    90  GLU90       0.1163
     65  CD        34.1310   86.4900   11.0880 C.2    90  GLU90       0.3649
     66  OE1       35.3610   86.2990   11.1800 O.co2  90  GLU90      -0.2457
     67  OE2       33.2940   85.5810   10.9200 O.co2  90  GLU90      -0.2457
     68  N         27.5560   90.9640   14.0450 N.3    95  PHE95      -0.1241
     69  CA        26.9620   90.0320   14.9980 C.3    95  PHE95       0.1605
     70  C         25.7700   90.4830   15.8140 C.2    95  PHE95       0.2264
     71  O         25.7830   91.5480   16.4320 O.2    95  PHE95      -0.2867
     72  CB        28.0210   89.5140   15.9790 C.3    95  PHE95       0.0534
     73  CG        28.8400   88.3880   15.4410 C.ar   95  PHE95      -0.0203
     74  CD1       29.9950   88.6390   14.7260 C.ar   95  PHE95      -0.0042
     75  CD2       28.4260   87.0670   15.6110 C.ar   95  PHE95      -0.0042
     76  CE1       30.7280   87.5970   14.1820 C.ar   95  PHE95      -0.0003
     77  CE2       29.1550   86.0160   15.0670 C.ar   95  PHE95      -0.0003
     78  CZ        30.3070   86.2820   14.3510 C.ar   95  PHE95      -0.0000
     79  N         30.9110  100.2100   13.5890 N.3   128  GLN128     -0.1231
     80  CA        31.9940  100.0000   14.5320 C.3   128  GLN128      0.1698
     81  C         31.9400   98.4940   14.7670 C.2   128  GLN128      0.2592
     82  O         31.0940   97.9960   15.5160 O.2   128  GLN128     -0.2718
     83  CB        31.7280  100.7610   15.8340 C.3   128  GLN128      0.0381
     84  CG        32.6750  100.4330   16.9870 C.3   128  GLN128      0.0905
     85  CD        34.1380  100.5200   16.5960 C.2   128  GLN128      0.2608
     86  OE1       34.5230  101.3390   15.7590 O.2   128  GLN128     -0.2717
     87  NE2       34.9660   99.6830   17.2120 N.am  128  GLN128     -0.0878
     88  N         32.8240   97.7760   14.0820 N.am  129  ALA129     -0.1966
     89  CA        32.8940   96.3260   14.1760 C.3   129  ALA129      0.1728
     90  C         34.1100   95.8330   13.4020 C.2   129  ALA129      0.2616
     91  O         34.5960   96.5040   12.4880 O.2   129  ALA129     -0.2715
     92  CB        31.6200   95.6940   13.6030 C.3   129  ALA129      0.0334
     93  N         34.5900   94.6530   13.7750 N.am  130  CYS130     -0.1968
     94  CA        35.7400   94.0570   13.1270 C.3   130  CYS130      0.1712
     95  C         35.3870   93.6460   11.7110 C.2   130  CYS130      0.2296
     96  O         34.2280   93.3810   11.4110 O.2   130  CYS130     -0.2864
     97  CB        36.2220   92.8520   13.9300 C.3   130  CYS130      0.0983
     98  SG        37.0790   93.3660   15.4160 S.3   130  CYS130     -0.0798
     99  N         37.6570   91.4470   10.1210 N.3   132  GLY132     -0.1210
    100  CA        38.6110   90.3750    9.9200 C.3   132  GLY132      0.1956
    101  C         39.5550   90.3310   11.0970 C.2   132  GLY132      0.2612
    102  O         39.2570   90.8940   12.1470 O.2   132  GLY132     -0.2717
    103  N         40.7070   89.6940   10.9250 N.am  133  THR133     -0.1952
    104  CA        41.6550   89.5730   12.0240 C.3   133  THR133      0.1897
    105  C         43.0600   90.0830   11.7450 C.2   133  THR133      0.2313
    106  O         44.0000   89.7620   12.4640 O.2   133  THR133     -0.2863
    107  CB        41.7460   88.1070   12.5030 C.3   133  THR133      0.1794
    108  OG1       42.1990   87.2710   11.4280 O.3   133  THR133     -0.2208
    109  CG2       40.3860   87.6260   12.9850 C.3   133  THR133      0.0378
    110  N         46.1280   92.7220   11.7100 N.3   135  LEU135     -0.1245
    111  CA        46.5860   93.7950   12.5790 C.3   135  LEU135      0.1561
    112  C         47.5220   94.6830   11.7720 C.2   135  LEU135      0.2260
    113  O         48.3190   94.1950   10.9760 O.2   135  LEU135     -0.2867
    114  CB        47.3160   93.2240   13.7940 C.3   135  LEU135      0.0270
    115  CG        46.4140   92.7350   14.9360 C.3   135  LEU135      0.0019
    116  CD1       47.2180   91.9270   15.9450 C.3   135  LEU135      0.0001
    117  CD2       45.7620   93.9440   15.5990 C.3   135  LEU135      0.0001
@<TRIPOS>BOND
     1    62    61    2
     2    61    60    1
     3    63    60    1
     4    63    64    1
     5   100    99    1
     6   100   101    1
     7    60    59    1
     8    67    65   ar
     9   103   101   am
    10   103   104    1
    11    59    57   am
    12   113   112    2
    13    65    64    1
    14    65    66   ar
    15   101   102    2
    16    96    95    2
    17   108   107    1
    18   110   111    1
    19    95    94    1
    20   105   104    1
    21   105   106    2
    22   112   111    1
    23   104   107    1
    24    57    58    2
    25    57    56    1
    26    91    90    2
    27   107   109    1
    28   111   114    1
    29    56    55    1
    30    94    93    1
    31    94    97    1
    32    90    93   am
    33    90    89    1
    34    79    80    1
    35    92    89    1
    36   114   115    1
    37    97    98    1
    38    68    69    1
    39    88    89    1
    40    88    81   am
    41    76    78   ar
    42    76    74   ar
    43    78    77   ar
    44    55    47   am
    45    80    81    1
    46    80    83    1
    47    74    73   ar
    48    48    47    2
    49    81    82    2
    50   115   117    1
    51   115   116    1
    52    69    70    1
    53    69    72    1
    54    77    75   ar
    55    47    46    1
    56    73    75   ar
    57    73    72    1
    58    86    85    2
    59    70    71    2
    60    83    84    1
    61    42    41    2
    62    85    84    1
    63    85    87   am
    64    46    45    1
    65    46    49    1
    66    41    45   am
    67    41    40    1
    68    43    44    1
    69    43    40    1
    70    39    40    1
    71    49    50    1
    72     7     8    1
    73     7     6    1
    74    50    51   ar
    75    50    52   ar
    76    51    53   ar
    77     6     5    1
    78    32    30    1
    79    29    30    2
    80    29    28    1
    81    52    54   ar
    82    30    31    1
    83    53    54   ar
    84    28    27    1
    85     5     2    1
    86     2     1    1
    87     2     3    1
    88    27    26    1
    89    26    23    1
    90     3     9   am
    91     3     4    2
    92     9    10    1
    93    12    11    2
    94    14    13    1
    95    23    22    1
    96    23    24    1
    97    10    11    1
    98    10    13    1
    99    11    16   am
   100    15    13    1
   101    22    18   am
   102    25    24    2
   103    24    33   am
   104    18    19    2
   105    18    17    1
   106    36    35    2
   107    16    17    1
   108    17    20    1
   109    33    34    1
   110    35    34    1
   111    34    37    1
   112    20    21    1
   113    37    38    1
