@<TRIPOS>MOLECULE
tmp/1rhkB00.pdb
 129 132 0 0 0
SMALL
GASTEIGER

@<TRIPOS>ATOM
      1  N         41.1610   94.1460   12.1620 N.3    19  TYR19      -0.1227
      2  CA        40.4910   94.2050   13.4560 C.3    19  TYR19       0.1736
      3  C         40.1080   95.6750   13.6440 C.2    19  TYR19       0.2596
      4  O         40.5190   96.5480   12.8660 O.2    19  TYR19      -0.2718
      5  CB        41.4640   93.8460   14.5890 C.3    19  TYR19       0.0548
      6  CG        41.6210   92.3910   14.9490 C.ar   19  TYR19      -0.0200
      7  CD1       40.5250   91.6220   15.3250 C.ar   19  TYR19      -0.0009
      8  CD2       42.8840   91.8050   15.0090 C.ar   19  TYR19      -0.0009
      9  CE1       40.6820   90.3060   15.7580 C.ar   19  TYR19       0.0417
     10  CE2       43.0530   90.4940   15.4400 C.ar   19  TYR19       0.0417
     11  CZ        41.9480   89.7500   15.8140 C.ar   19  TYR19       0.1957
     12  OH        42.1090   88.4520   16.2420 O.3    19  TYR19      -0.2866
     13  N         39.3330   95.9450   14.6870 N.am   20  SER20      -0.1938
     14  CA        38.9420   97.3050   15.0210 C.3    20  SER20       0.2055
     15  C         39.2030   97.4210   16.5120 C.2    20  SER20       0.2643
     16  O         38.9720   96.4740   17.2610 O.2    20  SER20      -0.2714
     17  CB        37.4650   97.5440   14.7270 C.3    20  SER20       0.2130
     18  OG        37.1430   98.9110   14.9140 O.3    20  SER20      -0.2179
     19  N         39.6990   98.5730   16.9460 N.am   21  TRP21      -0.1959
     20  CA        39.9990   98.7640   18.3540 C.3    21  TRP21       0.1771
     21  C         38.9240   99.4980   19.1320 C.2    21  TRP21       0.2620
     22  O         38.2770  100.4200   18.6350 O.2    21  TRP21      -0.2715
     23  CB        41.3430   99.4690   18.5090 C.3    21  TRP21       0.0590
     24  CG        42.4650   98.6230   18.0480 C.ar   21  TRP21       0.0006
     25  CD1       42.9830   98.5580   16.7890 C.ar   21  TRP21       0.0946
     26  CD2       43.1620   97.6470   18.8230 C.ar   21  TRP21       0.0152
     27  NE1       43.9630   97.5970   16.7290 N.ar   21  TRP21      -0.2442
     28  CE2       44.0920   97.0210   17.9660 C.ar   21  TRP21       0.0810
     29  CE3       43.0890   97.2360   20.1620 C.ar   21  TRP21       0.0012
     30  CZ2       44.9480   96.0010   18.4080 C.ar   21  TRP21       0.0191
     31  CZ3       43.9420   96.2220   20.6010 C.ar   21  TRP21       0.0001
     32  CH2       44.8570   95.6180   19.7240 C.ar   21  TRP21       0.0015
     33  N         38.7530   99.0670   20.3730 N.am   22  ARG22      -0.1963
     34  CA        37.7660   99.6300   21.2750 C.3    22  ARG22       0.1729
     35  C         38.4390   99.7070   22.6380 C.2    22  ARG22       0.2616
     36  O         39.1670   98.7930   23.0250 O.2    22  ARG22      -0.2715
     37  CB        36.5540   98.6980   21.3360 C.3    22  ARG22       0.0348
     38  CG        35.3610   99.2420   22.0740 C.3    22  ARG22       0.0492
     39  CD        34.3180   98.1550   22.3010 C.3    22  ARG22       0.2205
     40  NE        34.7590   97.2080   23.3200 N.pl3  22  ARG22      -0.0865
     41  CZ        35.3320   96.0320   23.0790 C.cat  22  ARG22       0.5346
     42  NH1       35.5390   95.6200   21.8360 N.pl3  22  ARG22       0.1354
     43  NH2       35.7170   95.2760   24.0970 N.pl3  22  ARG22       0.1354
     44  N         38.2220  100.7970   23.3620 N.am   23  ASN23      -0.1958
     45  CA        38.8160  100.9250   24.6830 C.3    23  ASN23       0.1819
     46  C         37.7260  100.7250   25.7300 C.2    23  ASN23       0.2622
     47  O         36.6530  101.3150   25.6260 O.2    23  ASN23      -0.2715
     48  CB        39.4710  102.2980   24.8470 C.3    23  ASN23       0.1195
     49  CG        40.2200  102.4320   26.1650 C.2    23  ASN23       0.2630
     50  OD1       39.6440  102.7970   27.1920 O.2    23  ASN23      -0.2716
     51  ND2       41.5130  102.1160   26.1440 N.am   23  ASN23      -0.0877
     52  N         38.0010   99.8840   26.7260 N.am   24  SER24      -0.1936
     53  CA        37.0540   99.5870   27.8050 C.3    24  SER24       0.2055
     54  C         36.3950  100.7900   28.4900 C.2    24  SER24       0.2642
     55  O         35.2130  100.7370   28.8270 O.2    24  SER24      -0.2714
     56  CB        37.7390   98.7520   28.8810 C.3    24  SER24       0.2130
     57  OG        38.2450   97.5550   28.3410 O.3    24  SER24      -0.2179
     58  N         37.1510  101.8620   28.7210 N.am   25  LYS25      -0.1977
     59  CA        36.5780  103.0270   29.3860 C.3    25  LYS25       0.1596
     60  C         36.3370  104.2290   28.4690 C.2    25  LYS25       0.2287
     61  O         35.4010  104.9970   28.6940 O.2    25  LYS25      -0.2864
     62  CB        37.4630  103.4470   30.5720 C.3    25  LYS25       0.0298
     63  CG        38.8670  103.8750   30.1710 C.3    25  LYS25       0.0038
     64  CD        39.6430  104.5260   31.3150 C.3    25  LYS25       0.0206
     65  CE        40.9890  105.0730   30.8140 C.3    25  LYS25       0.1093
     66  NZ        41.8980  105.5430   31.9070 N.3    25  LYS25      -0.1314
     67  N         35.3050  103.1120   21.4690 N.3    28  SER28      -0.1202
     68  CA        36.0760  102.7340   20.2890 C.3    28  SER28       0.2020
     69  C         36.7750  103.9730   19.7290 C.2    28  SER28       0.2618
     70  O         36.2730  105.0800   19.8700 O.2    28  SER28      -0.2717
     71  CB        35.1520  102.1310   19.2310 C.3    28  SER28       0.2103
     72  OG        34.2550  103.1050   18.7360 O.3    28  SER28      -0.2182
     73  N         37.9260  103.7840   19.0930 N.am   29  TRP29      -0.1975
     74  CA        38.6820  104.9020   18.5370 C.3    29  TRP29       0.1640
     75  C         37.8970  105.6510   17.4750 C.2    29  TRP29       0.2290
     76  O         37.9170  106.8770   17.4110 O.2    29  TRP29      -0.2864
     77  CB        39.9850  104.4160   17.8950 C.3    29  TRP29       0.0576
     78  CG        40.9360  103.6940   18.8110 C.ar   29  TRP29       0.0006
     79  CD1       40.8890  103.6340   20.1760 C.ar   29  TRP29       0.0946
     80  CD2       42.1170  102.9810   18.4190 C.ar   29  TRP29       0.0152
     81  NE1       41.9680  102.9300   20.6550 N.ar   29  TRP29      -0.2442
     82  CE2       42.7350  102.5150   19.5980 C.ar   29  TRP29       0.0810
     83  CE3       42.7110  102.6860   17.1810 C.ar   29  TRP29       0.0012
     84  CZ2       43.9250  101.7830   19.5770 C.ar   29  TRP29       0.0191
     85  CZ3       43.8930  101.9580   17.1620 C.ar   29  TRP29       0.0001
     86  CH2       44.4840  101.5110   18.3520 C.ar   29  TRP29       0.0015
     87  N         46.9870  104.2910   19.3000 N.3    63  GLU63      -0.1231
     88  CA        47.9110  103.1790   19.2070 C.3    63  GLU63       0.1699
     89  C         47.6280  102.2730   20.3950 C.2    63  GLU63       0.2593
     90  O         47.6580  102.7150   21.5480 O.2    63  GLU63      -0.2718
     91  CB        49.3460  103.6880   19.2550 C.3    63  GLU63       0.0402
     92  CG        50.3690  102.6600   18.8220 C.3    63  GLU63       0.1161
     93  CD        51.7520  103.2500   18.6810 C.2    63  GLU63       0.3649
     94  OE1       51.8680  104.3570   18.1090 O.co2  63  GLU63      -0.2457
     95  OE2       52.7190  102.6050   19.1290 O.co2  63  GLU63      -0.2457
     96  N         47.3490  101.0060   20.1030 N.am   64  SER64      -0.1938
     97  CA        47.0190  100.0350   21.1360 C.3    64  SER64       0.2055
     98  C         48.1830   99.7060   22.0520 C.2    64  SER64       0.2643
     99  O         49.3550   99.8130   21.6760 O.2    64  SER64      -0.2714
    100  CB        46.5190   98.7400   20.5080 C.3    64  SER64       0.2130
    101  OG        47.6080   97.9920   20.0150 O.3    64  SER64      -0.2179
    102  N         47.8320   99.3020   23.2650 N.am   65  PHE65      -0.1959
    103  CA        48.7970   98.9310   24.2820 C.3    65  PHE65       0.1771
    104  C         48.3070   97.6080   24.8580 C.2    65  PHE65       0.2620
    105  O         47.1280   97.4680   25.1920 O.2    65  PHE65      -0.2715
    106  CB        48.8570  100.0120   25.3690 C.3    65  PHE65       0.0574
    107  CG        49.7770   99.6780   26.5120 C.ar   65  PHE65      -0.0200
    108  CD1       49.3520   98.8530   27.5570 C.ar   65  PHE65      -0.0042
    109  CD2       51.0770  100.1760   26.5400 C.ar   65  PHE65      -0.0042
    110  CE1       50.2140   98.5310   28.6150 C.ar   65  PHE65      -0.0003
    111  CE2       51.9390   99.8610   27.5910 C.ar   65  PHE65      -0.0003
    112  CZ        51.5070   99.0370   28.6280 C.ar   65  PHE65      -0.0000
    113  N         49.2030   96.6340   24.9610 N.am   66  SER66      -0.1950
    114  CA        48.8170   95.3320   25.4880 C.3    66  SER66       0.1924
    115  C         50.0320   94.5490   25.9530 C.2    66  SER66       0.2314
    116  O         51.1420   94.7620   25.4630 O.2    66  SER66      -0.2863
    117  CB        48.0730   94.5360   24.4160 C.3    66  SER66       0.2116
    118  OG        47.2180   93.5750   25.0110 O.3    66  SER66      -0.2180
    119  N         49.3750   91.9580   19.9130 N.3    71  PHE71      -0.1241
    120  CA        48.4310   93.0660   19.8120 C.3    71  PHE71       0.1605
    121  C         48.9720   94.4140   20.2710 C.2    71  PHE71       0.2264
    122  O         48.2620   95.4160   20.2230 O.2    71  PHE71      -0.2867
    123  CB        47.1650   92.7440   20.6090 C.3    71  PHE71       0.0534
    124  CG        46.4610   91.5160   20.1430 C.ar   71  PHE71      -0.0203
    125  CD1       47.0050   90.2590   20.3730 C.ar   71  PHE71      -0.0042
    126  CD2       45.2610   91.6070   19.4620 C.ar   71  PHE71      -0.0042
    127  CE1       46.3610   89.1130   19.9330 C.ar   71  PHE71      -0.0003
    128  CE2       44.6150   90.4640   19.0190 C.ar   71  PHE71      -0.0003
    129  CZ        45.1710   89.2170   19.2580 C.ar   71  PHE71      -0.0000
@<TRIPOS>BOND
     1     1     2    1
     2     4     3    2
     3     2     3    1
     4     2     5    1
     5     3    13   am
     6     5     6    1
     7    13    14    1
     8    17    18    1
     9    17    14    1
    10     6     8   ar
    11     6     7   ar
    12     8    10   ar
    13    14    15    1
    14     7     9   ar
    15    10    11   ar
    16     9    11   ar
    17    11    12    1
    18    15    19   am
    19    15    16    2
    20    27    25   ar
    21    27    28   ar
    22    25    24   ar
    23    19    20    1
    24    85    83   ar
    25    85    86   ar
    26    83    80   ar
    27    76    75    2
    28    75    74    1
    29    77    74    1
    30    77    78    1
    31    28    30   ar
    32    28    26   ar
    33    24    23    1
    34    24    26   ar
    35    94    93   ar
    36    86    84   ar
    37    20    23    1
    38    20    21    1
    39    30    32   ar
    40    80    78   ar
    41    80    82   ar
    42    74    73    1
    43    22    21    2
    44    93    92    1
    45    93    95   ar
    46    72    71    1
    47    78    79   ar
    48    92    91    1
    49    26    29   ar
    50   128   129   ar
    51   128   126   ar
    52    73    69   am
    53    21    33   am
    54    88    91    1
    55    88    87    1
    56    88    89    1
    57    71    68    1
    58   129   127   ar
    59   126   124   ar
    60    84    82   ar
    61    82    81   ar
    62    32    31   ar
    63    69    70    2
    64    69    68    1
    65   120   119    1
    66   120   121    1
    67   120   123    1
    68   127   125   ar
    69   101   100    1
    70    96    89   am
    71    96    97    1
    72   124   125   ar
    73   124   123    1
    74    29    31   ar
    75    79    81   ar
    76   122   121    2
    77    68    67    1
    78    33    34    1
    79    89    90    2
    80   100    97    1
    81    97    98    1
    82    34    37    1
    83    34    35    1
    84    37    38    1
    85    99    98    2
    86    42    41    1
    87    98   102   am
    88    38    39    1
    89    39    40    1
    90    35    36    2
    91    35    44   am
    92    41    40    2
    93    41    43    1
    94   102   103    1
    95    44    45    1
    96   103   104    1
    97   103   106    1
    98   117   118    1
    99   117   114    1
   100    45    48    1
   101    45    46    1
   102    48    49    1
   103   104   113   am
   104   104   105    2
   105   113   114    1
   106   106   107    1
   107   116   115    2
   108   114   115    1
   109    47    46    2
   110    46    52   am
   111    51    49   am
   112    49    50    2
   113   107   109   ar
   114   107   108   ar
   115   109   111   ar
   116    52    53    1
   117   108   110   ar
   118   111   112   ar
   119    53    54    1
   120    53    56    1
   121    57    56    1
   122    60    61    2
   123    60    59    1
   124    54    58   am
   125    54    55    2
   126   110   112   ar
   127    58    59    1
   128    59    62    1
   129    63    62    1
   130    63    64    1
   131    65    64    1
   132    65    66    1
