@<TRIPOS>MOLECULE
tmp/1rhqB00.pdb
 111 114 0 0 0
SMALL
GASTEIGER

@<TRIPOS>ATOM
      1  N         48.1340   19.8560   95.7410 N.3    19  TYR19      -0.1227
      2  CA        48.5820   21.1600   95.2680 C.3    19  TYR19       0.1736
      3  C         49.9410   21.4350   95.8920 C.2    19  TYR19       0.2596
      4  O         50.2320   20.9640   96.9880 O.2    19  TYR19      -0.2718
      5  CB        47.6600   22.2680   95.7640 C.3    19  TYR19       0.0548
      6  CG        46.4310   22.5870   94.9540 C.ar   19  TYR19      -0.0200
      7  CD1       46.5210   22.9830   93.6240 C.ar   19  TYR19      -0.0009
      8  CD2       45.1820   22.6180   95.5630 C.ar   19  TYR19      -0.0009
      9  CE1       45.3890   23.4150   92.9340 C.ar   19  TYR19       0.0417
     10  CE2       44.0580   23.0440   94.8870 C.ar   19  TYR19       0.0417
     11  CZ        44.1600   23.4430   93.5820 C.ar   19  TYR19       0.1957
     12  OH        43.0270   23.8930   92.9490 O.3    19  TYR19      -0.2866
     13  N         50.7620   22.2160   95.2040 N.am   20  SER20      -0.1938
     14  CA        52.0570   22.5780   95.7370 C.3    20  SER20       0.2055
     15  C         52.0090   24.0550   96.0670 C.2    20  SER20       0.2643
     16  O         51.5170   24.8710   95.2770 O.2    20  SER20      -0.2714
     17  CB        53.1570   22.3070   94.7290 C.3    20  SER20       0.2130
     18  OG        53.3760   20.9230   94.6100 O.3    20  SER20      -0.2179
     19  N         52.5140   24.3900   97.2480 N.am   21  TRP21      -0.1959
     20  CA        52.5270   25.7630   97.7110 C.3    21  TRP21       0.1771
     21  C         53.8410   26.4790   97.4330 C.2    21  TRP21       0.2620
     22  O         54.9270   25.9290   97.6330 O.2    21  TRP21      -0.2715
     23  CB        52.2020   25.8130   99.2030 C.3    21  TRP21       0.0590
     24  CG        50.8700   25.2440   99.5120 C.ar   21  TRP21       0.0006
     25  CD1       50.6010   23.9750   99.8780 C.ar   21  TRP21       0.0946
     26  CD2       49.6080   25.9160   99.4250 C.ar   21  TRP21       0.0152
     27  NE1       49.2500   23.7970  100.0280 N.ar   21  TRP21      -0.2442
     28  CE2       48.6140   24.9770   99.7580 C.ar   21  TRP21       0.0810
     29  CE3       49.2200   27.2220   99.0990 C.ar   21  TRP21       0.0012
     30  CZ2       47.2450   25.2990   99.7740 C.ar   21  TRP21       0.0191
     31  CZ3       47.8570   27.5450   99.1130 C.ar   21  TRP21       0.0001
     32  CH2       46.8900   26.5860   99.4510 C.ar   21  TRP21       0.0015
     33  N         53.7000   27.7150   96.9610 N.am   22  ARG22      -0.1963
     34  CA        54.8000   28.6020   96.6080 C.3    22  ARG22       0.1729
     35  C         54.4660   29.9960   97.1460 C.2    22  ARG22       0.2616
     36  O         53.3120   30.4050   97.1170 O.2    22  ARG22      -0.2715
     37  CB        54.9350   28.6320   95.0920 C.3    22  ARG22       0.0348
     38  CG        55.8680   29.6740   94.5440 C.3    22  ARG22       0.0492
     39  CD        55.3720   30.0360   93.1700 C.3    22  ARG22       0.2205
     40  NE        53.9840   30.4930   93.2500 N.pl3  22  ARG22      -0.0865
     41  CZ        53.0120   30.1090   92.4310 C.cat  22  ARG22       0.5346
     42  NH1       53.2610   29.2440   91.4530 N.pl3  22  ARG22       0.1354
     43  NH2       51.7910   30.6010   92.5860 N.pl3  22  ARG22       0.1354
     44  N         55.4740   30.7190   97.6320 N.am   23  ASN23      -0.1958
     45  CA        55.2640   32.0610   98.1980 C.3    23  ASN23       0.1819
     46  C         55.5050   33.2300   97.2230 C.2    23  ASN23       0.2622
     47  O         56.5890   33.3800   96.6570 O.2    23  ASN23      -0.2715
     48  CB        56.1390   32.2370   99.4490 C.3    23  ASN23       0.1195
     49  CG        55.8360   33.5260  100.2150 C.2    23  ASN23       0.2630
     50  OD1       56.5180   33.8440  101.1940 O.2    23  ASN23      -0.2716
     51  ND2       54.8150   34.2660   99.7760 N.am   23  ASN23      -0.0877
     52  N         54.4840   34.0650   97.0560 N.am   24  SER24      -0.1950
     53  CA        54.5610   35.1970   96.1510 C.3    24  SER24       0.1924
     54  C         55.7400   36.0980   96.4690 C.2    24  SER24       0.2314
     55  O         56.0700   36.9950   95.7010 O.2    24  SER24      -0.2863
     56  CB        53.2540   35.9790   96.2090 C.3    24  SER24       0.2116
     57  OG        52.1620   35.1350   95.8720 O.3    24  SER24      -0.2180
     58  N         58.9140   28.8920   96.4760 N.3    28  SER28      -0.1202
     59  CA        58.3650   27.6020   96.8410 C.3    28  SER28       0.2020
     60  C         58.7740   27.1110   98.2240 C.2    28  SER28       0.2618
     61  O         59.9380   27.1850   98.5970 O.2    28  SER28      -0.2717
     62  CB        58.7750   26.5710   95.7990 C.3    28  SER28       0.2103
     63  OG        58.4590   27.0290   94.4980 O.3    28  SER28      -0.2182
     64  N         57.7990   26.6280   98.9880 N.am   29  TRP29      -0.1975
     65  CA        58.0740   26.0800  100.3020 C.3    29  TRP29       0.1640
     66  C         59.2080   25.1000  100.0900 C.2    29  TRP29       0.2290
     67  O         60.3640   25.3570  100.4200 O.2    29  TRP29      -0.2864
     68  CB        56.8660   25.3070  100.8130 C.3    29  TRP29       0.0576
     69  CG        55.7430   26.1580  101.2550 C.ar   29  TRP29       0.0006
     70  CD1       55.6480   27.5010  101.1280 C.ar   29  TRP29       0.0946
     71  CD2       54.5710   25.7380  101.9660 C.ar   29  TRP29       0.0152
     72  NE1       54.4960   27.9520  101.7240 N.ar   29  TRP29      -0.2442
     73  CE2       53.8150   26.8840  102.2430 C.ar   29  TRP29       0.0810
     74  CE3       54.0870   24.4980  102.3900 C.ar   29  TRP29       0.0012
     75  CZ2       52.6110   26.8400  102.9290 C.ar   29  TRP29       0.0191
     76  CZ3       52.8790   24.4530  103.0780 C.ar   29  TRP29       0.0001
     77  CH2       52.1600   25.6150  103.3360 C.ar   29  TRP29       0.0015
     78  N         49.6360   27.2080  104.8860 N.3    64  SER64      -0.1202
     79  CA        48.9660   28.1540  103.9880 C.3    64  SER64       0.2020
     80  C         48.1320   29.2040  104.7450 C.2    64  SER64       0.2619
     81  O         47.6350   28.9360  105.8420 O.2    64  SER64      -0.2717
     82  CB        48.0760   27.3720  103.0070 C.3    64  SER64       0.2103
     83  OG        47.2900   28.2160  102.1810 O.3    64  SER64      -0.2182
     84  N         47.9870   30.3910  104.1430 N.am   65  PHE65      -0.1961
     85  CA        47.2380   31.5100  104.7260 C.3    65  PHE65       0.1771
     86  C         46.4540   32.2710  103.6640 C.2    65  PHE65       0.2620
     87  O         47.0540   32.8730  102.7720 O.2    65  PHE65      -0.2715
     88  CB        48.1970   32.4940  105.3920 C.3    65  PHE65       0.0574
     89  CG        47.5370   33.7700  105.8420 C.ar   65  PHE65      -0.0200
     90  CD1       46.7710   33.8010  107.0030 C.ar   65  PHE65      -0.0042
     91  CD2       47.6510   34.9320  105.0910 C.ar   65  PHE65      -0.0042
     92  CE1       46.1240   34.9690  107.4150 C.ar   65  PHE65      -0.0003
     93  CE2       47.0060   36.1040  105.4930 C.ar   65  PHE65      -0.0003
     94  CZ        46.2400   36.1200  106.6600 C.ar   65  PHE65      -0.0000
     95  N         45.1280   32.2760  103.7650 N.am   66  SER66      -0.1950
     96  CA        44.3370   32.9870  102.7760 C.3    66  SER66       0.1924
     97  C         42.9750   33.4550  103.2610 C.2    66  SER66       0.2314
     98  O         42.5100   33.0730  104.3310 O.2    66  SER66      -0.2863
     99  CB        44.1710   32.1170  101.5330 C.3    66  SER66       0.2116
    100  OG        44.0360   32.9110  100.3650 O.3    66  SER66      -0.2180
    101  N         41.2140   28.0070  100.5750 N.3    71  PHE71      -0.1241
    102  CA        42.6490   27.7390  100.5030 C.3    71  PHE71       0.1605
    103  C         43.3710   28.0120  101.8000 C.2    71  PHE71       0.2264
    104  O         44.5700   27.7510  101.9330 O.2    71  PHE71      -0.2867
    105  CB        43.3020   28.5350   99.3890 C.3    71  PHE71       0.0534
    106  CG        42.7500   28.2330   98.0440 C.ar   71  PHE71      -0.0203
    107  CD1       41.5360   28.7810   97.6440 C.ar   71  PHE71      -0.0042
    108  CD2       43.4290   27.3820   97.1790 C.ar   71  PHE71      -0.0042
    109  CE1       40.9960   28.4900   96.4000 C.ar   71  PHE71      -0.0003
    110  CE2       42.8990   27.0820   95.9310 C.ar   71  PHE71      -0.0003
    111  CZ        41.6770   27.6390   95.5410 C.ar   71  PHE71      -0.0000
@<TRIPOS>BOND
     1    42    41    1
     2    41    43    1
     3    41    40    2
     4     9    11   ar
     5     9     7   ar
     6    12    11    1
     7    39    40    1
     8    39    38    1
     9    11    10   ar
    10     7     6   ar
    11    63    62    1
    12    38    37    1
    13    18    17    1
    14    17    14    1
    15    10     8   ar
    16     6     8   ar
    17     6     5    1
    18    37    34    1
    19    13    14    1
    20    13     3   am
    21     2     1    1
    22     2     5    1
    23     2     3    1
    24    16    15    2
    25   111   110   ar
    26   111   109   ar
    27    55    54    2
    28    14    15    1
    29    62    59    1
    30    57    56    1
    31     3     4    2
    32   110   108   ar
    33    15    19   am
    34    53    56    1
    35    53    54    1
    36    53    52    1
    37   109   107   ar
    38    58    59    1
    39    34    33    1
    40    34    35    1
    41    47    46    2
    42    59    60    1
    43    33    21   am
    44    52    46   am
    45    36    35    2
    46    35    44   am
    47   108   106   ar
    48    46    45    1
    49    19    20    1
    50    21    22    2
    51    21    20    1
    52    44    45    1
    53   107   106   ar
    54    20    23    1
    55   106   105    1
    56    45    48    1
    57    60    61    2
    58    60    64   am
    59    64    65    1
    60    29    31   ar
    61    29    26   ar
    62    31    32   ar
    63    23    24    1
    64   105   102    1
    65    26    24   ar
    66    26    28   ar
    67    48    49    1
    68    32    30   ar
    69    24    25   ar
    70    28    30   ar
    71    28    27   ar
    72    51    49   am
    73    25    27   ar
    74    66    65    1
    75    66    67    2
    76    49    50    2
    77    65    68    1
    78   100    99    1
    79   102   101    1
    80   102   103    1
    81    68    69    1
    82    70    69   ar
    83    70    72   ar
    84    69    71   ar
    85    99    96    1
    86    72    73   ar
    87   103   104    2
    88    71    73   ar
    89    71    74   ar
    90    83    82    1
    91    73    75   ar
    92    74    76   ar
    93    87    86    2
    94    96    97    1
    95    96    95    1
    96    75    77   ar
    97    82    79    1
    98    76    77   ar
    99    97    98    2
   100    86    95   am
   101    86    85    1
   102    79    80    1
   103    79    78    1
   104    84    85    1
   105    84    80   am
   106    85    88    1
   107    80    81    2
   108    91    93   ar
   109    91    89   ar
   110    88    89    1
   111    93    94   ar
   112    89    90   ar
   113    94    92   ar
   114    90    92   ar
