@<TRIPOS>MOLECULE
tmp/1rhqC00.pdb
 105 100 0 0 0
SMALL
GASTEIGER

@<TRIPOS>ATOM
      1  N         42.6700  -14.8350   86.8480 N.3    28  MET28      -0.1230
      2  CA        43.9530  -14.3930   87.4010 C.3    28  MET28       0.1702
      3  C         44.8900  -15.5670   87.6840 C.2    28  MET28       0.2593
      4  O         44.5620  -16.4520   88.4780 O.2    28  MET28      -0.2718
      5  CB        43.7320  -13.6110   88.7040 C.3    28  MET28       0.0401
      6  CG        43.5630  -12.1050   88.5370 C.3    28  MET28       0.0596
      7  SD        45.0310  -11.3140   87.8410 S.3    28  MET28      -0.1393
      8  CE        44.5550  -11.1860   86.0810 C.3    28  MET28       0.0692
      9  N         46.0620  -15.5530   87.0460 N.am   29  THR29      -0.1953
     10  CA        47.0620  -16.6080   87.2220 C.3    29  THR29       0.1897
     11  C         47.4120  -16.7690   88.6910 C.2    29  THR29       0.2313
     12  O         47.1080  -15.9020   89.5000 O.2    29  THR29      -0.2863
     13  CB        48.3650  -16.2800   86.4810 C.3    29  THR29       0.1794
     14  OG1       49.1390  -15.3620   87.2630 O.3    29  THR29      -0.2208
     15  CG2       48.0600  -15.6520   85.1270 C.3    29  THR29       0.0378
     16  N         50.1030  -17.3340   91.9830 N.3    31  ARG31      -0.1245
     17  CA        51.4040  -16.8190   92.3910 C.3    31  ARG31       0.1563
     18  C         52.3110  -17.8540   93.0610 C.2    31  ARG31       0.2260
     19  O         52.4630  -17.8700   94.2800 O.2    31  ARG31      -0.2867
     20  CB        51.2080  -15.6260   93.3250 C.3    31  ARG31       0.0307
     21  CG        50.6080  -14.4120   92.6550 C.3    31  ARG31       0.0489
     22  CD        50.7100  -13.2030   93.5520 C.3    31  ARG31       0.2205
     23  NE        52.1020  -12.9200   93.8800 N.pl3  31  ARG31      -0.0865
     24  CZ        52.5210  -12.5610   95.0870 C.cat  31  ARG31       0.5346
     25  NH1       51.6440  -12.4420   96.0660 N.pl3  31  ARG31       0.1354
     26  NH2       53.8140  -12.3410   95.3170 N.pl3  31  ARG31       0.1354
     27  N         50.3260   -9.8800   96.0240 N.3    87  SER87      -0.1202
     28  CA        49.2460  -10.1650   95.1070 C.3    87  SER87       0.2020
     29  C         49.6840   -9.7830   93.6960 C.2    87  SER87       0.2619
     30  O         50.8830   -9.6970   93.4140 O.2    87  SER87      -0.2717
     31  CB        48.0290   -9.3480   95.5300 C.3    87  SER87       0.2103
     32  OG        46.9060   -9.6480   94.7360 O.3    87  SER87      -0.2182
     33  N         48.7180   -9.5690   92.8080 N.am   88  HIS88      -0.1961
     34  CA        49.0160   -9.1640   91.4390 C.3    88  HIS88       0.1787
     35  C         48.5590   -7.7390   91.3570 C.2    88  HIS88       0.2621
     36  O         48.2620   -7.1460   92.3830 O.2    88  HIS88      -0.2715
     37  CB        48.2270   -9.9920   90.4250 C.3    88  HIS88       0.0785
     38  CG        48.7640  -11.3720   90.2210 C.ar   88  HIS88       0.0821
     39  ND1       49.3010  -11.7930   89.0230 N.ar   88  HIS88      -0.2267
     40  CD2       48.8560  -12.4230   91.0640 C.ar   88  HIS88       0.1154
     41  CE1       49.7010  -13.0470   89.1380 C.ar   88  HIS88       0.1986
     42  NE2       49.4420  -13.4530   90.3680 N.ar   88  HIS88      -0.2212
     43  N         48.4970   -7.1810   90.1500 N.am   89  GLY89      -0.1940
     44  CA        48.0390   -5.8080   90.0330 C.3    89  GLY89       0.2014
     45  C         48.4270   -4.9530   88.8380 C.2    89  GLY89       0.2638
     46  O         49.2740   -5.2990   88.0090 O.2    89  GLY89      -0.2714
     47  N         47.7600   -3.8110   88.7690 N.am   90  GLU90      -0.1977
     48  CA        47.9780   -2.8200   87.7400 C.3    90  GLU90       0.1602
     49  C         48.4040   -1.6250   88.5700 C.2    90  GLU90       0.2287
     50  O         48.3040   -1.6630   89.7950 O.2    90  GLU90      -0.2864
     51  CB        46.6640   -2.5100   87.0310 C.3    90  GLU90       0.0415
     52  CG        45.9770   -3.7260   86.4320 C.3    90  GLU90       0.1163
     53  CD        44.5170   -3.4770   86.0840 C.2    90  GLU90       0.3649
     54  OE1       43.6890   -3.3360   87.0150 O.co2  90  GLU90      -0.2457
     55  OE2       44.1970   -3.4210   84.8760 O.co2  90  GLU90      -0.2457
     56  N         45.0710   -6.5090   93.6750 N.3    95  PHE95      -0.1241
     57  CA        44.0780   -7.5670   93.5880 C.3    95  PHE95       0.1605
     58  C         43.6630   -8.3930   94.8120 C.2    95  PHE95       0.2264
     59  O         44.4940   -8.8490   95.6020 O.2    95  PHE95      -0.2867
     60  CB        44.4760   -8.5270   92.4690 C.3    95  PHE95       0.0534
     61  CG        44.1070   -8.0460   91.1040 C.ar   95  PHE95      -0.0203
     62  CD1       44.9820   -7.2910   90.3450 C.ar   95  PHE95      -0.0042
     63  CD2       42.8600   -8.3440   90.5820 C.ar   95  PHE95      -0.0042
     64  CE1       44.6150   -6.8390   89.0730 C.ar   95  PHE95      -0.0003
     65  CE2       42.4840   -7.8990   89.3170 C.ar   95  PHE95      -0.0003
     66  CZ        43.3570   -7.1500   88.5630 C.ar   95  PHE95      -0.0000
     67  N         54.2820   -5.8880   97.0350 N.3   128  GLN128     -0.1231
     68  CA        54.9280   -6.8070   96.0950 C.3   128  GLN128      0.1698
     69  C         53.9070   -7.3020   95.0570 C.2   128  GLN128      0.2592
     70  O         53.1730   -8.2640   95.2940 O.2   128  GLN128     -0.2718
     71  CB        55.5430   -7.9830   96.8650 C.3   128  GLN128      0.0381
     72  CG        55.9620   -9.1420   96.0050 C.3   128  GLN128      0.0905
     73  CD        56.8140   -8.7000   94.8510 C.2   128  GLN128      0.2608
     74  OE1       57.8100   -8.0070   95.0320 O.2   128  GLN128     -0.2717
     75  NE2       56.4290   -9.0960   93.6480 N.am  128  GLN128     -0.0878
     76  N         53.8710   -6.6220   93.9120 N.am  129  ALA129     -0.1966
     77  CA        52.9430   -6.9450   92.8360 C.3   129  ALA129      0.1728
     78  C         53.2680   -6.1630   91.5700 C.2   129  ALA129      0.2616
     79  O         54.1650   -5.3320   91.5580 O.2   129  ALA129     -0.2715
     80  CB        51.5290   -6.6330   93.2660 C.3   129  ALA129      0.0334
     81  N         52.5270   -6.4390   90.5040 N.am  130  CYS130     -0.1968
     82  CA        52.7210   -5.7540   89.2350 C.3   130  CYS130      0.1712
     83  C         52.1870   -4.3290   89.2980 C.2   130  CYS130      0.2296
     84  O         51.1370   -4.0660   89.8980 O.2   130  CYS130     -0.2864
     85  CB        52.0020   -6.4970   88.1010 C.3   130  CYS130      0.0983
     86  SG        52.8730   -7.9360   87.4650 S.3   130  CYS130     -0.0798
     87  N         51.7020   -2.5450   86.4000 N.3   132  GLY132     -0.1210
     88  CA        51.4330   -2.2630   85.0090 C.3   132  GLY132      0.1956
     89  C         51.9440   -3.4360   84.2230 C.2   132  GLY132      0.2612
     90  O         51.9350   -4.5470   84.7340 O.2   132  GLY132     -0.2717
     91  N         52.4160   -3.2060   83.0010 N.am  133  THR133     -0.1952
     92  CA        52.9120   -4.3080   82.1780 C.3   133  THR133      0.1897
     93  C         54.0710   -3.9910   81.2320 C.2   133  THR133      0.2313
     94  O         54.1060   -4.4970   80.1110 O.2   133  THR133     -0.2863
     95  CB        51.7860   -4.8980   81.3150 C.3   133  THR133      0.1794
     96  OG1       51.2490   -3.8690   80.4700 O.3   133  THR133     -0.2208
     97  CG2       50.6850   -5.4770   82.1890 C.3   133  THR133      0.0378
     98  N         58.2360   -3.9620   80.2000 N.3   135  LEU135     -0.1245
     99  CA        59.3420   -4.8960   80.3730 C.3   135  LEU135      0.1561
    100  C         60.6430   -4.1080   80.3940 C.2   135  LEU135      0.2260
    101  O         60.8200   -3.1740   79.6180 O.2   135  LEU135     -0.2867
    102  CB        59.3610   -5.8960   79.2150 C.3   135  LEU135      0.0270
    103  CG        58.0750   -6.7010   78.9760 C.3   135  LEU135      0.0019
    104  CD1       58.0920   -7.3130   77.5980 C.3   135  LEU135      0.0001
    105  CD2       57.9250   -7.7620   80.0290 C.3   135  LEU135      0.0001
@<TRIPOS>BOND
     1   104   103    1
     2   103   102    1
     3   103   105    1
     4   102    99    1
     5   101   100    2
     6    94    93    2
     7    98    99    1
     8    99   100    1
     9    96    95    1
    10    93    92    1
    11    95    92    1
    12    95    97    1
    13    92    91    1
    14    91    89   am
    15    89    90    2
    16    89    88    1
    17    55    53   ar
    18    88    87    1
    19    15    13    1
    20     8     7    1
    21    53    52    1
    22    53    54   ar
    23    52    51    1
    24    13    10    1
    25    13    14    1
    26     1     2    1
    27    51    48    1
    28     9    10    1
    29     9     3   am
    30    10    11    1
    31     2     3    1
    32     2     5    1
    33    86    85    1
    34     3     4    2
    35    48    49    1
    36    48    47    1
    37     7     6    1
    38    46    45    2
    39    85    82    1
    40     6     5    1
    41    66    64   ar
    42    66    65   ar
    43    49    50    2
    44    11    12    2
    45    47    45   am
    46    45    44    1
    47    39    41   ar
    48    39    38   ar
    49    64    62   ar
    50    41    42   ar
    51    82    83    1
    52    82    81    1
    53    83    84    2
    54    65    63   ar
    55    44    43    1
    56    43    35   am
    57    38    37    1
    58    38    40   ar
    59    62    61   ar
    60    42    40   ar
    61    37    34    1
    62    81    78   am
    63    63    61   ar
    64    61    60    1
    65    35    34    1
    66    35    36    2
    67    34    33    1
    68    79    78    2
    69    78    77    1
    70    16    17    1
    71    17    18    1
    72    17    20    1
    73    60    57    1
    74    21    20    1
    75    21    22    1
    76    33    29   am
    77    77    80    1
    78    77    76    1
    79    18    19    2
    80    30    29    2
    81    22    23    1
    82    57    56    1
    83    57    58    1
    84    75    73   am
    85    29    28    1
    86    23    24    2
    87    76    69   am
    88    32    31    1
    89    58    59    2
    90    73    74    2
    91    73    72    1
    92    69    70    2
    93    69    68    1
    94    24    26    1
    95    24    25    1
    96    28    31    1
    97    28    27    1
    98    72    71    1
    99    68    71    1
   100    68    67    1
