@<TRIPOS>MOLECULE
tmp/1rhrA00.pdb
 109 104 0 0 0
SMALL
GASTEIGER

@<TRIPOS>ATOM
      1  N         66.8810  -22.0050   87.2140 N.3    27  GLY27      -0.1210
      2  CA        68.2510  -22.4640   87.2050 C.3    27  GLY27       0.1956
      3  C         68.8680  -22.3010   88.5630 C.2    27  GLY27       0.2612
      4  O         70.0780  -22.4570   88.7170 O.2    27  GLY27      -0.2717
      5  N         68.0390  -21.9870   89.5520 N.am   28  MET28      -0.1965
      6  CA        68.5390  -21.8070   90.9100 C.3    28  MET28       0.1736
      7  C         68.7500  -23.1390   91.6360 C.2    28  MET28       0.2617
      8  O         67.8400  -23.9770   91.7330 O.2    28  MET28      -0.2715
      9  CB        67.5940  -20.9210   91.7270 C.3    28  MET28       0.0427
     10  CG        67.6990  -19.4350   91.4370 C.3    28  MET28       0.0599
     11  SD        69.3830  -18.8920   91.2800 S.3    28  MET28      -0.1393
     12  CE        69.2970  -18.0150   89.6920 C.3    28  MET28       0.0692
     13  N         69.9620  -23.3230   92.1470 N.am   29  THR29      -0.1951
     14  CA        70.3110  -24.5410   92.8540 C.3    29  THR29       0.1897
     15  C         69.3620  -24.7570   94.0310 C.2    29  THR29       0.2313
     16  O         68.8670  -23.7900   94.6170 O.2    29  THR29      -0.2863
     17  CB        71.7440  -24.4550   93.3800 C.3    29  THR29       0.1794
     18  OG1       71.7590  -23.7020   94.5970 O.3    29  THR29      -0.2208
     19  CG2       72.6250  -23.7510   92.3600 C.3    29  THR29       0.0378
     20  N         68.5600  -25.1640   97.5520 N.3    31  ARG31      -0.1245
     21  CA        69.1890  -24.7690   98.8040 C.3    31  ARG31       0.1563
     22  C         69.0630  -25.8130   99.9120 C.2    31  ARG31       0.2260
     23  O         67.9770  -26.0170  100.4510 O.2    31  ARG31      -0.2867
     24  CB        68.5560  -23.4550   99.2480 C.3    31  ARG31       0.0307
     25  CG        68.4110  -22.4580   98.1030 C.3    31  ARG31       0.0489
     26  CD        67.6990  -21.1820   98.5200 C.3    31  ARG31       0.2205
     27  NE        68.2530  -20.6490   99.7510 N.pl3  31  ARG31      -0.0865
     28  CZ        67.6660  -20.7660  100.9320 C.cat  31  ARG31       0.5346
     29  NH1       66.5030  -21.3870  101.0180 N.pl3  31  ARG31       0.1354
     30  NH2       68.2510  -20.2960  102.0250 N.pl3  31  ARG31       0.1354
     31  N         65.4910  -17.5980  100.7320 N.3    87  SER87      -0.1202
     32  CA        65.5290  -18.0100   99.3350 C.3    87  SER87       0.2020
     33  C         66.8060  -17.5170   98.6780 C.2    87  SER87       0.2619
     34  O         67.7250  -17.0680   99.3560 O.2    87  SER87      -0.2717
     35  CB        64.3170  -17.4390   98.5870 C.3    87  SER87       0.2103
     36  OG        64.3100  -17.8400   97.2230 O.3    87  SER87      -0.2182
     37  N         66.8640  -17.6200   97.3540 N.am   88  HIS88      -0.1961
     38  CA        68.0210  -17.1510   96.6070 C.3    88  HIS88       0.1790
     39  C         67.7700  -15.6630   96.4230 C.2    88  HIS88       0.2660
     40  O         66.7830  -15.1500   96.9320 O.2    88  HIS88      -0.2711
     41  CB        68.1240  -17.8710   95.2460 C.3    88  HIS88       0.0785
     42  CG        68.9460  -19.1290   95.2840 C.ar   88  HIS88       0.0821
     43  ND1       70.3240  -19.1210   95.2670 N.ar   88  HIS88      -0.2267
     44  CD2       68.5820  -20.4320   95.3440 C.ar   88  HIS88       0.1154
     45  CE1       70.7730  -20.3630   95.3130 C.ar   88  HIS88       0.1986
     46  NE2       69.7360  -21.1790   95.3600 N.ar   88  HIS88      -0.2212
     47  N         68.6520  -14.9650   95.7190 N.am   89  GLY89      -0.1716
     48  CA        68.4240  -13.5480   95.5150 C.2    89  GLY89       0.1480
     49  C         69.5600  -12.7650   94.8960 C.2    89  GLY89       0.2820
     50  O         70.6730  -13.2510   94.7250 O.2    89  GLY89      -0.2669
     51  N         69.2560  -11.5320   94.5390 N.am   90  GLU90      -0.1943
     52  CA        70.2370  -10.6380   93.9680 C.3    90  GLU90       0.1605
     53  C         70.0940   -9.4260   94.8530 C.2    90  GLU90       0.2287
     54  O         69.5960   -9.5510   95.9780 O.2    90  GLU90      -0.2864
     55  CB        69.8730  -10.2830   92.5360 C.3    90  GLU90       0.0415
     56  CG        69.7380  -11.4820   91.6450 C.3    90  GLU90       0.1163
     57  CD        69.5500  -11.0920   90.2040 C.2    90  GLU90       0.3649
     58  OE1       70.3590  -10.2780   89.7130 O.co2  90  GLU90      -0.2457
     59  OE2       68.6010  -11.5940   89.5620 O.co2  90  GLU90      -0.2457
     60  N         63.9640  -14.3530   95.2230 N.3    95  PHE95      -0.1241
     61  CA        63.5410  -15.3400   94.2490 C.3    95  PHE95       0.1605
     62  C         62.3170  -16.1780   94.5250 C.2    95  PHE95       0.2264
     63  O         62.0440  -16.6040   95.6500 O.2    95  PHE95      -0.2867
     64  CB        64.6960  -16.2730   93.9200 C.3    95  PHE95       0.0534
     65  CG        65.4700  -15.8520   92.7280 C.ar   95  PHE95      -0.0203
     66  CD1       66.1080  -14.6250   92.7070 C.ar   95  PHE95      -0.0042
     67  CD2       65.5220  -16.6580   91.6060 C.ar   95  PHE95      -0.0042
     68  CE1       66.7810  -14.2080   91.5870 C.ar   95  PHE95      -0.0003
     69  CE2       66.1960  -16.2490   90.4790 C.ar   95  PHE95      -0.0003
     70  CZ        66.8240  -15.0240   90.4660 C.ar   95  PHE95      -0.0000
     71  N         66.9290  -13.4290  104.1830 N.3   128  GLN128     -0.1231
     72  CA        68.0600  -14.3500  104.1720 C.3   128  GLN128      0.1698
     73  C         68.4060  -14.6730  102.7220 C.2   128  GLN128      0.2592
     74  O         67.8360  -15.5910  102.1360 O.2   128  GLN128     -0.2718
     75  CB        67.6960  -15.6270  104.9240 C.3   128  GLN128      0.0381
     76  CG        68.7430  -16.7120  104.8600 C.3   128  GLN128      0.0905
     77  CD        70.1370  -16.2010  105.1540 C.2   128  GLN128      0.2608
     78  OE1       70.3370  -15.3820  106.0520 O.2   128  GLN128     -0.2717
     79  NE2       71.1170  -16.6980  104.4070 N.am  128  GLN128     -0.0878
     80  N         69.3360  -13.9060  102.1500 N.am  129  ALA129     -0.1966
     81  CA        69.7340  -14.0950  100.7610 C.3   129  ALA129      0.1728
     82  C         70.9140  -13.2790  100.1940 C.2   129  ALA129      0.2616
     83  O         71.4630  -12.3590  100.7970 O.2   129  ALA129     -0.2715
     84  CB        68.5160  -13.9110   99.8510 C.3   129  ALA129      0.0334
     85  N         71.2250  -13.6830   98.9740 N.am  130  CYS130     -0.1968
     86  CA        72.2760  -13.2620   98.0470 C.3   130  CYS130      0.1712
     87  C         72.0470  -11.8560   97.4640 C.2   130  CYS130      0.2296
     88  O         71.2400  -11.6600   96.5530 O.2   130  CYS130     -0.2864
     89  CB        72.2170  -14.4140   97.0470 C.3   130  CYS130      0.0983
     90  SG        72.6800  -15.8060   98.0970 S.3   130  CYS130     -0.0798
     91  N         74.1250  -10.3180   95.8320 N.3   132  GLY132     -0.1210
     92  CA        75.0710  -10.2160   94.7400 C.3   132  GLY132      0.1956
     93  C         76.0210  -11.3970   94.7190 C.2   132  GLY132      0.2612
     94  O         75.6880  -12.4800   95.2240 O.2   132  GLY132     -0.2717
     95  N         77.2090  -11.1790   94.1470 N.am  133  THR133     -0.1952
     96  CA        78.2350  -12.2190   94.0350 C.3   133  THR133      0.1897
     97  C         79.6520  -11.7890   94.4890 C.2   133  THR133      0.2313
     98  O         80.6460  -12.0500   93.8090 O.2   133  THR133     -0.2863
     99  CB        78.3070  -12.7530   92.5850 C.3   133  THR133      0.1794
    100  OG1       78.3860  -11.6490   91.6810 O.3   133  THR133     -0.2208
    101  CG2       77.0700  -13.5770   92.2470 C.3   133  THR133      0.0378
    102  N         82.7200  -11.7480   97.5840 N.3   135  LEU135     -0.1245
    103  CA        83.2350  -12.5410   98.7070 C.3   135  LEU135      0.1561
    104  C         84.0700  -11.7020   99.6570 C.2   135  LEU135      0.2260
    105  O         84.7360  -10.7580   99.2460 O.2   135  LEU135     -0.2867
    106  CB        84.0760  -13.7190   98.1960 C.3   135  LEU135      0.0270
    107  CG        83.4330  -14.6040   97.1230 C.3   135  LEU135      0.0019
    108  CD1       83.6970  -14.0120   95.7560 C.3   135  LEU135      0.0001
    109  CD2       84.0010  -15.9920   97.1830 C.3   135  LEU135      0.0001
@<TRIPOS>BOND
     1     2     1    1
     2     2     3    1
     3     3     4    2
     4     3     5   am
     5     5     6    1
     6    59    57   ar
     7    12    11    1
     8    58    57   ar
     9    57    56    1
    10    70    69   ar
    11    70    68   ar
    12    69    67   ar
    13     6     7    1
    14     6     9    1
    15    11    10    1
    16    10     9    1
    17    68    66   ar
    18    67    65   ar
    19     7     8    2
    20     7    13   am
    21    56    55    1
    22   100    99    1
    23    13    14    1
    24   101    99    1
    25    19    17    1
    26    55    52    1
    27    99    96    1
    28    66    65   ar
    29    65    64    1
    30    14    17    1
    31    14    15    1
    32    17    18    1
    33    98    97    2
    34    64    61    1
    35    52    51    1
    36    52    53    1
    37    15    16    2
    38    96    95    1
    39    96    97    1
    40    95    93   am
    41    61    62    1
    42    61    60    1
    43    62    63    2
    44    51    49   am
    45    93    92    1
    46    93    94    2
    47    50    49    2
    48    92    91    1
    49    53    54    2
    50    49    48    1
    51    41    42    1
    52    41    38    1
    53    43    42   ar
    54    43    45   ar
    55    42    44   ar
    56    45    46   ar
    57    44    46   ar
    58    48    47    2
    59    47    39    1
    60   108   107    1
    61    39    38    1
    62    39    40    2
    63    88    87    2
    64    38    37    1
    65    89    86    1
    66    89    90    1
    67   107   109    1
    68   107   106    1
    69    36    35    1
    70    37    33   am
    71    87    86    1
    72    20    21    1
    73   102   103    1
    74    86    85    1
    75    25    26    1
    76    25    24    1
    77   106   103    1
    78    26    27    1
    79    35    32    1
    80    33    32    1
    81    33    34    2
    82   103   104    1
    83    21    24    1
    84    21    22    1
    85    85    82   am
    86   105   104    2
    87    32    31    1
    88    27    28    2
    89    84    81    1
    90    22    23    2
    91    82    81    1
    92    82    83    2
    93    81    80    1
    94    28    29    1
    95    28    30    1
    96    74    73    2
    97    80    73   am
    98    73    72    1
    99    72    71    1
   100    72    75    1
   101    79    77   am
   102    76    75    1
   103    76    77    1
   104    77    78    2
