@<TRIPOS>MOLECULE
tmp/1rhrB00.pdb
 143 148 0 0 0
SMALL
GASTEIGER

@<TRIPOS>ATOM
      1  N         76.9730   -8.4730   98.2840 N.3    18  TYR18      -0.1227
      2  CA        77.6330   -9.7250   98.6100 C.3    18  TYR18       0.1736
      3  C         76.7360  -10.9470   98.6710 C.2    18  TYR18       0.2595
      4  O         75.5130  -10.8650   98.6190 O.2    18  TYR18      -0.2718
      5  CB        78.3680   -9.5930   99.9410 C.3    18  TYR18       0.0548
      6  CG        79.6150   -8.7480   99.8590 C.ar   18  TYR18      -0.0200
      7  CD1       79.5910   -7.4910   99.2600 C.ar   18  TYR18      -0.0009
      8  CD2       80.8140   -9.1990  100.3780 C.ar   18  TYR18      -0.0009
      9  CE1       80.7270   -6.7110   99.1850 C.ar   18  TYR18       0.0417
     10  CE2       81.9580   -8.4280  100.3070 C.ar   18  TYR18       0.0417
     11  CZ        81.9100   -7.1830   99.7090 C.ar   18  TYR18       0.1957
     12  OH        83.0520   -6.4150   99.6420 O.3    18  TYR18      -0.2866
     13  N         77.3980  -12.0900   98.7820 N.am   19  TYR19      -0.1962
     14  CA        76.7670  -13.3860   98.8840 C.3    19  TYR19       0.1771
     15  C         76.4140  -13.6060  100.3380 C.2    19  TYR19       0.2620
     16  O         76.9600  -12.9440  101.2300 O.2    19  TYR19      -0.2715
     17  CB        77.7470  -14.4830   98.5060 C.3    19  TYR19       0.0574
     18  CG        77.8300  -14.8310   97.0500 C.ar   19  TYR19      -0.0198
     19  CD1       76.6930  -15.2280   96.3380 C.ar   19  TYR19      -0.0009
     20  CD2       79.0670  -14.8670   96.4010 C.ar   19  TYR19      -0.0009
     21  CE1       76.7900  -15.6650   95.0140 C.ar   19  TYR19       0.0417
     22  CE2       79.1780  -15.3010   95.0810 C.ar   19  TYR19       0.0417
     23  CZ        78.0410  -15.7000   94.3930 C.ar   19  TYR19       0.1957
     24  OH        78.1640  -16.1310   93.0890 O.3    19  TYR19      -0.2866
     25  N         75.5130  -14.5610  100.5580 N.am   20  SER20      -0.1936
     26  CA        75.0860  -14.9590  101.8910 C.3    20  SER20       0.2055
     27  C         75.4450  -16.4300  102.0320 C.2    20  SER20       0.2643
     28  O         75.2260  -17.2120  101.1120 O.2    20  SER20      -0.2714
     29  CB        73.5830  -14.7860  102.0500 C.3    20  SER20       0.2130
     30  OG        73.1850  -15.1970  103.3450 O.3    20  SER20      -0.2179
     31  N         75.9920  -16.8100  103.1780 N.am   21  TRP21      -0.1959
     32  CA        76.3860  -18.1990  103.3720 C.3    21  TRP21       0.1771
     33  C         75.3800  -19.1540  103.9950 C.2    21  TRP21       0.2620
     34  O         74.3950  -18.7500  104.6300 O.2    21  TRP21      -0.2715
     35  CB        77.6870  -18.2720  104.1520 C.3    21  TRP21       0.0590
     36  CG        78.8130  -17.7640  103.3550 C.ar   21  TRP21       0.0006
     37  CD1       79.2770  -16.4800  103.3100 C.ar   21  TRP21       0.0946
     38  CD2       79.5740  -18.5040  102.3900 C.ar   21  TRP21       0.0152
     39  NE1       80.2800  -16.3760  102.3760 N.ar   21  TRP21      -0.2442
     40  CE2       80.4860  -17.6040  101.7990 C.ar   21  TRP21       0.0810
     41  CE3       79.5770  -19.8430  101.9710 C.ar   21  TRP21       0.0012
     42  CZ2       81.3860  -17.9960  100.8010 C.ar   21  TRP21       0.0191
     43  CZ3       80.4710  -20.2270  100.9800 C.ar   21  TRP21       0.0001
     44  CH2       81.3660  -19.3080  100.4120 C.ar   21  TRP21       0.0015
     45  N         75.6620  -20.4410  103.8330 N.am   22  ARG22      -0.1963
     46  CA        74.7620  -21.4560  104.3270 C.3    22  ARG22       0.1729
     47  C         75.4710  -22.7720  104.6070 C.2    22  ARG22       0.2616
     48  O         76.3280  -23.2060  103.8400 O.2    22  ARG22      -0.2715
     49  CB        73.6810  -21.6780  103.2760 C.3    22  ARG22       0.0348
     50  CG        72.3490  -22.0770  103.8140 C.3    22  ARG22       0.0492
     51  CD        71.4260  -22.3400  102.6650 C.3    22  ARG22       0.2205
     52  NE        71.8570  -23.4990  101.8960 N.pl3  22  ARG22      -0.0865
     53  CZ        72.1860  -23.4630  100.6140 C.cat  22  ARG22       0.5346
     54  NH1       72.1420  -22.3170   99.9560 N.pl3  22  ARG22       0.1354
     55  NH2       72.5240  -24.5750   99.9800 N.pl3  22  ARG22       0.1354
     56  N         75.1060  -23.3980  105.7170 N.am   23  ASN23      -0.1958
     57  CA        75.6650  -24.6910  106.0800 C.3    23  ASN23       0.1819
     58  C         74.6380  -25.7340  105.6500 C.2    23  ASN23       0.2622
     59  O         73.4330  -25.4970  105.7160 O.2    23  ASN23      -0.2715
     60  CB        75.8850  -24.7960  107.5830 C.3    23  ASN23       0.1195
     61  CG        76.2550  -26.1980  108.0090 C.2    23  ASN23       0.2630
     62  OD1       76.1110  -26.5620  109.1740 O.2    23  ASN23      -0.2716
     63  ND2       76.7430  -26.9940  107.0640 N.am   23  ASN23      -0.0877
     64  N         75.1050  -26.8910  105.2120 N.am   24  SER24      -0.1950
     65  CA        74.1840  -27.9080  104.7650 C.3    24  SER24       0.1924
     66  C         73.6600  -28.7320  105.9250 C.2    24  SER24       0.2314
     67  O         72.7030  -29.4830  105.7600 O.2    24  SER24      -0.2863
     68  CB        74.8740  -28.8160  103.7460 C.3    24  SER24       0.2116
     69  OG        75.4940  -28.0550  102.7190 O.3    24  SER24      -0.2180
     70  N         71.8110  -21.6860  107.4000 N.3    28  SER28      -0.1202
     71  CA        72.3650  -20.3310  107.3840 C.3    28  SER28       0.2020
     72  C         73.2100  -20.0110  108.6160 C.2    28  SER28       0.2618
     73  O         72.9960  -20.5630  109.7040 O.2    28  SER28      -0.2717
     74  CB        71.2310  -19.3110  107.2980 C.3    28  SER28       0.2103
     75  OG        70.2170  -19.7820  106.4340 O.3    28  SER28      -0.2182
     76  N         74.1800  -19.1220  108.4200 N.am   29  TRP29      -0.1975
     77  CA        75.0500  -18.6680  109.4890 C.3    29  TRP29       0.1640
     78  C         74.2060  -17.6280  110.1970 C.2    29  TRP29       0.2290
     79  O         74.0290  -17.6510  111.4130 O.2    29  TRP29      -0.2864
     80  CB        76.2740  -17.9540  108.9240 C.3    29  TRP29       0.0576
     81  CG        77.2350  -18.7720  108.0930 C.ar   29  TRP29       0.0006
     82  CD1       77.1110  -20.0790  107.7250 C.ar   29  TRP29       0.0946
     83  CD2       78.4890  -18.3140  107.5410 C.ar   29  TRP29       0.0152
     84  NE1       78.2040  -20.4650  106.9820 N.ar   29  TRP29      -0.2442
     85  CE2       79.0640  -19.4020  106.8530 C.ar   29  TRP29       0.0810
     86  CE3       79.1770  -17.0850  107.5630 C.ar   29  TRP29       0.0012
     87  CZ2       80.3010  -19.3020  106.1920 C.ar   29  TRP29       0.0191
     88  CZ3       80.4020  -16.9880  106.9080 C.ar   29  TRP29       0.0001
     89  CH2       80.9500  -18.0890  106.2310 C.ar   29  TRP29       0.0015
     90  N         82.5560  -17.3450  112.1260 N.3    62  PHE62      -0.1227
     91  CA        82.0780  -18.0920  110.9660 C.3    62  PHE62       0.1736
     92  C         83.0100  -17.8610  109.7780 C.2    62  PHE62       0.2595
     93  O         83.2240  -16.7240  109.3560 O.2    62  PHE62      -0.2718
     94  CB        80.6460  -17.6940  110.6290 C.3    62  PHE62       0.0547
     95  CG        79.6260  -18.3190  111.5270 C.ar   62  PHE62      -0.0202
     96  CD1       79.1860  -19.6180  111.2990 C.ar   62  PHE62      -0.0042
     97  CD2       79.1430  -17.6360  112.6350 C.ar   62  PHE62      -0.0042
     98  CE1       78.2780  -20.2330  112.1700 C.ar   62  PHE62      -0.0003
     99  CE2       78.2350  -18.2430  113.5110 C.ar   62  PHE62      -0.0003
    100  CZ        77.8040  -19.5440  113.2770 C.ar   62  PHE62      -0.0000
    101  N         83.5750  -18.9490  109.2560 N.am   63  GLU63      -0.1965
    102  CA        84.5040  -18.8620  108.1390 C.3    63  GLU63       0.1733
    103  C         84.3510  -20.0410  107.2040 C.2    63  GLU63       0.2617
    104  O         84.5370  -21.1890  107.5860 O.2    63  GLU63      -0.2715
    105  CB        85.9360  -18.7940  108.6560 C.3    63  GLU63       0.0429
    106  CG        86.9190  -18.1440  107.7090 C.3    63  GLU63       0.1163
    107  CD        87.9340  -19.1240  107.1950 C.2    63  GLU63       0.3649
    108  OE1       88.4270  -19.9380  107.9980 O.co2  63  GLU63      -0.2457
    109  OE2       88.2500  -19.0860  105.9930 O.co2  63  GLU63      -0.2457
    110  N         84.0160  -19.7300  105.9620 N.am   64  SER64      -0.1936
    111  CA        83.8000  -20.7320  104.9360 C.3    64  SER64       0.2055
    112  C         84.9520  -21.7020  104.7580 C.2    64  SER64       0.2643
    113  O         86.1180  -21.3740  105.0010 O.2    64  SER64      -0.2714
    114  CB        83.5090  -20.0520  103.5940 C.3    64  SER64       0.2130
    115  OG        83.0490  -20.9840  102.6320 O.3    64  SER64      -0.2179
    116  N         84.5900  -22.9070  104.3300 N.am   65  PHE65      -0.1959
    117  CA        85.5280  -23.9820  104.0510 C.3    65  PHE65       0.1771
    118  C         85.0400  -24.6080  102.7460 C.2    65  PHE65       0.2620
    119  O         83.8420  -24.8380  102.5870 O.2    65  PHE65      -0.2715
    120  CB        85.5000  -25.0280  105.1750 C.3    65  PHE65       0.0574
    121  CG        86.2440  -26.2950  104.8360 C.ar   65  PHE65      -0.0200
    122  CD1       87.6340  -26.3350  104.8770 C.ar   65  PHE65      -0.0042
    123  CD2       85.5520  -27.4320  104.4040 C.ar   65  PHE65      -0.0042
    124  CE1       88.3210  -27.4840  104.4890 C.ar   65  PHE65      -0.0003
    125  CE2       86.2280  -28.5800  104.0150 C.ar   65  PHE65      -0.0003
    126  CZ        87.6130  -28.6090  104.0560 C.ar   65  PHE65      -0.0000
    127  N         85.9450  -24.8700  101.8090 N.am   66  SER66      -0.1950
    128  CA        85.5420  -25.4850  100.5490 C.3    66  SER66       0.1924
    129  C         86.7320  -25.9310   99.7160 C.2    66  SER66       0.2314
    130  O         87.8140  -25.3720   99.8240 O.2    66  SER66      -0.2863
    131  CB        84.6750  -24.5210   99.7380 C.3    66  SER66       0.2116
    132  OG        84.1430  -25.1560   98.5840 O.3    66  SER66      -0.2180
    133  N         85.2980  -20.4330   96.2970 N.3    71  PHE71      -0.1241
    134  CA        84.3030  -20.5550   97.3500 C.3    71  PHE71       0.1605
    135  C         84.8560  -21.0170   98.6920 C.2    71  PHE71       0.2264
    136  O         84.1360  -21.6020   99.4940 O.2    71  PHE71      -0.2867
    137  CB        83.2110  -21.5100   96.8770 C.3    71  PHE71       0.0534
    138  CG        82.5400  -21.0760   95.5930 C.ar   71  PHE71      -0.0203
    139  CD1       81.6040  -20.0370   95.5950 C.ar   71  PHE71      -0.0042
    140  CD2       82.8300  -21.7220   94.3840 C.ar   71  PHE71      -0.0042
    141  CE1       80.9610  -19.6490   94.4130 C.ar   71  PHE71      -0.0003
    142  CE2       82.1980  -21.3450   93.1950 C.ar   71  PHE71      -0.0003
    143  CZ        81.2590  -20.3070   93.2110 C.ar   71  PHE71      -0.0000
@<TRIPOS>BOND
     1    24    23    1
     2   142   143   ar
     3   142   140   ar
     4   143   141   ar
     5   140   138   ar
     6    23    21   ar
     7    23    22   ar
     8   141   139   ar
     9    21    19   ar
    10    22    20   ar
    11   138   139   ar
    12   138   137    1
    13   133   134    1
    14    19    18   ar
    15    20    18   ar
    16   137   134    1
    17    18    17    1
    18   134   135    1
    19     1     2    1
    20    17    14    1
    21   132   131    1
    22     2     3    1
    23     2     5    1
    24     4     3    2
    25     3    13   am
    26   135   136    2
    27    13    14    1
    28    14    15    1
    29     9     7   ar
    30     9    11   ar
    31     7     6   ar
    32    12    11    1
    33    11    10   ar
    34   129   130    2
    35   129   128    1
    36   131   128    1
    37     6     5    1
    38     6     8   ar
    39    54    53    1
    40    55    53    1
    41    10     8   ar
    42    15    25   am
    43    15    16    2
    44    44    42   ar
    45    44    43   ar
    46   128   127    1
    47    25    26    1
    48    53    52    2
    49    42    40   ar
    50    43    41   ar
    51    28    27    2
    52    40    39   ar
    53    40    38   ar
    54   127   118   am
    55    26    27    1
    56    26    29    1
    57    52    51    1
    58    41    38   ar
    59    27    31   am
    60    29    30    1
    61    39    37   ar
    62    38    36   ar
    63   119   118    2
    64   115   114    1
    65    51    50    1
    66    69    68    1
    67   118   117    1
    68    31    32    1
    69    49    50    1
    70    49    46    1
    71    37    36   ar
    72    36    35    1
    73    32    33    1
    74    32    35    1
    75   114   111    1
    76    68    65    1
    77    45    33   am
    78    45    46    1
    79    48    47    2
    80    33    34    2
    81   125   126   ar
    82   125   123   ar
    83   117   116    1
    84   117   120    1
    85   126   124   ar
    86    46    47    1
    87   116   112   am
    88   123   121   ar
    89   124   122   ar
    90    47    56   am
    91   112   111    1
    92   112   113    2
    93    65    64    1
    94    65    66    1
    95   121   122   ar
    96   121   120    1
    97   111   110    1
    98    64    58   am
    99    58    59    2
   100    58    57    1
   101    56    57    1
   102    67    66    2
   103   110   103   am
   104   109   107   ar
   105    57    60    1
   106    87    89   ar
   107    87    85   ar
   108    89    88   ar
   109    75    74    1
   110    85    84   ar
   111    85    83   ar
   112    88    86   ar
   113    84    82   ar
   114    63    61   am
   115   107   106    1
   116   107   108   ar
   117   103   104    2
   118   103   102    1
   119    74    71    1
   120    71    70    1
   121    71    72    1
   122    83    86   ar
   123    83    81   ar
   124    60    61    1
   125   106   105    1
   126    82    81   ar
   127    61    62    2
   128    81    80    1
   129   102   105    1
   130   102   101    1
   131    76    72   am
   132    76    77    1
   133    72    73    2
   134    80    77    1
   135   101    92   am
   136    93    92    2
   137    77    78    1
   138    92    91    1
   139    78    79    2
   140    94    91    1
   141    94    95    1
   142    91    90    1
   143    96    95   ar
   144    96    98   ar
   145    95    97   ar
   146    98   100   ar
   147    97    99   ar
   148   100    99   ar
