@<TRIPOS>MOLECULE
tmp/1rhuB00.pdb
 120 123 0 0 0
SMALL
GASTEIGER

@<TRIPOS>ATOM
      1  N         76.7230  -11.9700   98.0710 N.3    19  TYR19      -0.1227
      2  CA        76.1480  -13.3010   98.2220 C.3    19  TYR19       0.1736
      3  C         75.7920  -13.4530   99.7030 C.2    19  TYR19       0.2596
      4  O         76.3070  -12.7310  100.5620 O.2    19  TYR19      -0.2718
      5  CB        77.1900  -14.3800   97.9050 C.3    19  TYR19       0.0548
      6  CG        77.3980  -14.7410   96.4510 C.ar   19  TYR19      -0.0200
      7  CD1       76.3760  -15.3120   95.6970 C.ar   19  TYR19      -0.0009
      8  CD2       78.6540  -14.6090   95.8610 C.ar   19  TYR19      -0.0009
      9  CE1       76.6050  -15.7520   94.3910 C.ar   19  TYR19       0.0417
     10  CE2       78.8930  -15.0450   94.5630 C.ar   19  TYR19       0.0417
     11  CZ        77.8670  -15.6180   93.8330 C.ar   19  TYR19       0.1957
     12  OH        78.1150  -16.0650   92.5560 O.3    19  TYR19      -0.2866
     13  N         74.9140  -14.3970   99.9990 N.am   20  SER20      -0.1938
     14  CA        74.5490  -14.6870  101.3730 C.3    20  SER20       0.2055
     15  C         74.8730  -16.1720  101.4740 C.2    20  SER20       0.2643
     16  O         74.6440  -16.9140  100.5220 O.2    20  SER20      -0.2714
     17  CB        73.0610  -14.4480  101.6050 C.3    20  SER20       0.2130
     18  OG        72.7010  -14.8120  102.9210 O.3    20  SER20      -0.2179
     19  N         75.4210  -16.6120  102.5990 N.am   21  TRP21      -0.1959
     20  CA        75.7730  -18.0170  102.7320 C.3    21  TRP21       0.1771
     21  C         74.8290  -18.8800  103.5530 C.2    21  TRP21       0.2620
     22  O         74.1930  -18.4290  104.5110 O.2    21  TRP21      -0.2715
     23  CB        77.1890  -18.1410  103.2680 C.3    21  TRP21       0.0590
     24  CG        78.1590  -17.5570  102.3330 C.ar   21  TRP21       0.0006
     25  CD1       78.5200  -16.2500  102.2390 C.ar   21  TRP21       0.0946
     26  CD2       78.8770  -18.2500  101.3060 C.ar   21  TRP21       0.0152
     27  NE1       79.4240  -16.0820  101.2180 N.ar   21  TRP21      -0.2442
     28  CE2       79.6600  -17.2930  100.6290 C.ar   21  TRP21       0.0810
     29  CE3       78.9330  -19.5880  100.8940 C.ar   21  TRP21       0.0012
     30  CZ2       80.4930  -17.6320   99.5580 C.ar   21  TRP21       0.0191
     31  CZ3       79.7590  -19.9250   99.8310 C.ar   21  TRP21       0.0001
     32  CH2       80.5280  -18.9500   99.1760 C.ar   21  TRP21       0.0015
     33  N         74.7650  -20.1440  103.1590 N.am   22  ARG22      -0.1963
     34  CA        73.9000  -21.1200  103.7910 C.3    22  ARG22       0.1729
     35  C         74.6150  -22.4700  103.8850 C.2    22  ARG22       0.2616
     36  O         75.3280  -22.8650  102.9590 O.2    22  ARG22      -0.2715
     37  CB        72.6450  -21.2700  102.9400 C.3    22  ARG22       0.0348
     38  CG        71.6420  -22.2710  103.4520 C.3    22  ARG22       0.0492
     39  CD        70.6740  -22.6220  102.3560 C.3    22  ARG22       0.2205
     40  NE        71.3540  -23.3120  101.2610 N.pl3  22  ARG22      -0.0865
     41  CZ        71.3250  -22.9140   99.9950 C.cat  22  ARG22       0.5346
     42  NH1       70.6480  -21.8330   99.6670 N.pl3  22  ARG22       0.1354
     43  NH2       71.9750  -23.5930   99.0630 N.pl3  22  ARG22       0.1354
     44  N         74.4330  -23.1700  105.0020 N.am   23  ASN23      -0.1958
     45  CA        75.0430  -24.4850  105.1810 C.3    23  ASN23       0.1819
     46  C         73.9280  -25.5160  105.0060 C.2    23  ASN23       0.2622
     47  O         72.8750  -25.4090  105.6280 O.2    23  ASN23      -0.2715
     48  CB        75.6790  -24.5910  106.5730 C.3    23  ASN23       0.1195
     49  CG        76.3730  -25.9210  106.7980 C.2    23  ASN23       0.2630
     50  OD1       75.7380  -26.9070  107.1820 O.2    23  ASN23      -0.2716
     51  ND2       77.6810  -25.9610  106.5440 N.am   23  ASN23      -0.0877
     52  N         74.1510  -26.5100  104.1520 N.am   24  SER24      -0.1950
     53  CA        73.1240  -27.5230  103.8850 C.3    24  SER24       0.1924
     54  C         72.7200  -28.3690  105.0810 C.2    24  SER24       0.2314
     55  O         71.6650  -28.9980  105.0750 O.2    24  SER24      -0.2863
     56  CB        73.5680  -28.4500  102.7520 C.3    24  SER24       0.2116
     57  OG        74.7210  -29.1790  103.1240 O.3    24  SER24      -0.2180
     58  N         71.0380  -21.4450  107.0050 N.3    28  SER28      -0.1202
     59  CA        71.7920  -20.2350  106.7000 C.3    28  SER28       0.2020
     60  C         72.4340  -19.6640  107.9660 C.2    28  SER28       0.2618
     61  O         71.9180  -19.8460  109.0660 O.2    28  SER28      -0.2717
     62  CB        70.8770  -19.1990  106.0510 C.3    28  SER28       0.2103
     63  OG        69.6910  -19.0420  106.8050 O.3    28  SER28      -0.2182
     64  N         73.5660  -18.9840  107.8110 N.am   29  TRP29      -0.1975
     65  CA        74.2610  -18.4030  108.9550 C.3    29  TRP29       0.1640
     66  C         73.3750  -17.3680  109.6270 C.2    29  TRP29       0.2290
     67  O         73.2110  -17.3570  110.8500 O.2    29  TRP29      -0.2864
     68  CB        75.5570  -17.7260  108.5140 C.3    29  TRP29       0.0576
     69  CG        76.4770  -18.6010  107.7380 C.ar   29  TRP29       0.0006
     70  CD1       76.3760  -19.9500  107.5600 C.ar   29  TRP29       0.0946
     71  CD2       77.6480  -18.1860  107.0300 C.ar   29  TRP29       0.0152
     72  NE1       77.4120  -20.4020  106.7780 N.ar   29  TRP29      -0.2442
     73  CE2       78.2080  -19.3410  106.4400 C.ar   29  TRP29       0.0810
     74  CE3       78.2780  -16.9520  106.8370 C.ar   29  TRP29       0.0012
     75  CZ2       79.3710  -19.2950  105.6670 C.ar   29  TRP29       0.0191
     76  CZ3       79.4380  -16.9040  106.0660 C.ar   29  TRP29       0.0001
     77  CH2       79.9710  -18.0690  105.4910 C.ar   29  TRP29       0.0015
     78  N         82.5480  -18.6300  108.3500 N.3    63  GLU63      -0.1231
     79  CA        83.4910  -18.5260  107.2480 C.3    63  GLU63       0.1699
     80  C         83.2350  -19.7360  106.3570 C.2    63  GLU63       0.2593
     81  O         83.2810  -20.8720  106.8090 O.2    63  GLU63      -0.2718
     82  CB        84.9180  -18.5300  107.7920 C.3    63  GLU63       0.0402
     83  CG        85.9950  -18.4130  106.7400 C.3    63  GLU63       0.1161
     84  CD        87.3560  -18.1110  107.3450 C.2    63  GLU63       0.3649
     85  OE1       88.3780  -18.4840  106.7350 O.co2  63  GLU63      -0.2457
     86  OE2       87.4080  -17.4860  108.4280 O.co2  63  GLU63      -0.2457
     87  N         82.9450  -19.4910  105.0890 N.am   64  SER64      -0.1938
     88  CA        82.6440  -20.5810  104.1710 C.3    64  SER64       0.2055
     89  C         83.7770  -21.5730  103.9780 C.2    64  SER64       0.2643
     90  O         84.9580  -21.2360  104.0800 O.2    64  SER64      -0.2714
     91  CB        82.2360  -20.0370  102.7970 C.3    64  SER64       0.2130
     92  OG        83.3550  -19.5330  102.0820 O.3    64  SER64      -0.2179
     93  N         83.3870  -22.8100  103.7060 N.am   65  PHE65      -0.1959
     94  CA        84.3270  -23.8820  103.4370 C.3    65  PHE65       0.1771
     95  C         83.8260  -24.4520  102.1220 C.2    65  PHE65       0.2620
     96  O         82.6500  -24.8160  101.9900 O.2    65  PHE65      -0.2715
     97  CB        84.2900  -24.9590  104.5230 C.3    65  PHE65       0.0574
     98  CG        85.2680  -26.0690  104.2940 C.ar   65  PHE65      -0.0200
     99  CD1       86.5930  -25.9380  104.6850 C.ar   65  PHE65      -0.0042
    100  CD2       84.8740  -27.2380  103.6450 C.ar   65  PHE65      -0.0042
    101  CE1       87.5190  -26.9630  104.4320 C.ar   65  PHE65      -0.0003
    102  CE2       85.7910  -28.2660  103.3880 C.ar   65  PHE65      -0.0003
    103  CZ        87.1130  -28.1260  103.7820 C.ar   65  PHE65      -0.0000
    104  N         84.7220  -24.5130  101.1490 N.am   66  SER66      -0.1950
    105  CA        84.3700  -25.0010   99.8340 C.3    66  SER66       0.1924
    106  C         85.5790  -25.6560   99.2040 C.2    66  SER66       0.2314
    107  O         86.7080  -25.1990   99.3920 O.2    66  SER66      -0.2863
    108  CB        83.9080  -23.8250   98.9630 C.3    66  SER66       0.2116
    109  OG        83.5730  -24.2440   97.6520 O.3    66  SER66      -0.2180
    110  N         85.0680  -19.9790   96.2120 N.3    71  PHE71      -0.1241
    111  CA        83.9830  -19.7570   97.1660 C.3    71  PHE71       0.1605
    112  C         84.4020  -20.1610   98.5690 C.2    71  PHE71       0.2264
    113  O         83.5680  -20.3030   99.4610 O.2    71  PHE71      -0.2867
    114  CB        82.7560  -20.5630   96.7610 C.3    71  PHE71       0.0534
    115  CG        82.1280  -20.1010   95.4850 C.ar   71  PHE71      -0.0203
    116  CD1       81.6450  -18.8010   95.3680 C.ar   71  PHE71      -0.0042
    117  CD2       81.9980  -20.9660   94.4080 C.ar   71  PHE71      -0.0042
    118  CE1       81.0380  -18.3700   94.1960 C.ar   71  PHE71      -0.0003
    119  CE2       81.3920  -20.5460   93.2320 C.ar   71  PHE71      -0.0003
    120  CZ        80.9100  -19.2430   93.1270 C.ar   71  PHE71      -0.0000
@<TRIPOS>BOND
     1    12    11    1
     2   120   119   ar
     3   120   118   ar
     4   119   117   ar
     5    11     9   ar
     6    11    10   ar
     7   118   116   ar
     8     9     7   ar
     9   117   115   ar
    10    10     8   ar
    11   116   115   ar
    12   115   114    1
    13     7     6   ar
    14     8     6   ar
    15   110   111    1
    16     6     5    1
    17   114   111    1
    18   111   112    1
    19   109   108    1
    20     5     2    1
    21     1     2    1
    22     2     3    1
    23   112   113    2
    24   108   105    1
    25    43    41    1
    26    32    30   ar
    27    32    31   ar
    28   106   107    2
    29   106   105    1
    30    30    28   ar
    31    42    41    1
    32     3    13   am
    33     3     4    2
    34    31    29   ar
    35   105   104    1
    36    41    40    2
    37    13    14    1
    38    16    15    2
    39    28    27   ar
    40    28    26   ar
    41    29    26   ar
    42   104    95   am
    43    27    25   ar
    44    40    39    1
    45    26    24   ar
    46    14    15    1
    47    14    17    1
    48    15    19   am
    49    17    18    1
    50    96    95    2
    51    92    91    1
    52    95    94    1
    53    25    24   ar
    54    24    23    1
    55    39    38    1
    56    19    20    1
    57    20    23    1
    58    20    21    1
    59    56    57    1
    60    56    53    1
    61    91    88    1
    62    37    38    1
    63    37    34    1
    64    36    35    2
    65    33    21   am
    66    33    34    1
    67   102   100   ar
    68   102   103   ar
    69    94    93    1
    70    94    97    1
    71    21    22    2
    72   100    98   ar
    73    93    89   am
    74   103   101   ar
    75    34    35    1
    76    35    44   am
    77    53    52    1
    78    53    54    1
    79    89    90    2
    80    89    88    1
    81    52    46   am
    82    88    87    1
    83    98    97    1
    84    98    99   ar
    85   101    99   ar
    86    44    45    1
    87    46    45    1
    88    46    47    2
    89    55    54    2
    90    87    80   am
    91    45    48    1
    92    77    75   ar
    93    77    76   ar
    94    75    73   ar
    95    62    59    1
    96    62    63    1
    97    76    74   ar
    98    80    81    2
    99    80    79    1
   100    73    72   ar
   101    73    71   ar
   102    51    49   am
   103    48    49    1
   104    59    58    1
   105    59    60    1
   106    85    84   ar
   107    83    84    1
   108    83    82    1
   109    72    70   ar
   110    49    50    2
   111    74    71   ar
   112    71    69   ar
   113    79    82    1
   114    79    78    1
   115    84    86   ar
   116    70    69   ar
   117    69    68    1
   118    64    60   am
   119    64    65    1
   120    60    61    2
   121    68    65    1
   122    65    66    1
   123    66    67    2
