@<TRIPOS>MOLECULE
tmp/1rhuA00.pdb
 105 100 0 0 0
SMALL
GASTEIGER

@<TRIPOS>ATOM
      1  N         68.3200  -21.6510   89.0470 N.3    28  MET28      -0.1230
      2  CA        68.7450  -21.5930   90.4420 C.3    28  MET28       0.1702
      3  C         68.9040  -23.0010   91.0240 C.2    28  MET28       0.2593
      4  O         68.0790  -23.8790   90.7770 O.2    28  MET28      -0.2718
      5  CB        67.7150  -20.8320   91.2840 C.3    28  MET28       0.0401
      6  CG        67.3310  -19.4460   90.7910 C.3    28  MET28       0.0596
      7  SD        68.7020  -18.2980   90.6100 S.3    28  MET28      -0.1393
      8  CE        69.6630  -18.6500   92.0670 C.3    28  MET28       0.0692
      9  N         69.9560  -23.2040   91.8140 N.am   29  THR29      -0.1953
     10  CA        70.2110  -24.5020   92.4370 C.3    29  THR29       0.1897
     11  C         69.2660  -24.7140   93.6190 C.2    29  THR29       0.2313
     12  O         68.7240  -23.7540   94.1700 O.2    29  THR29      -0.2863
     13  CB        71.6660  -24.6110   92.9540 C.3    29  THR29       0.1794
     14  OG1       71.7880  -23.9330   94.2120 O.3    29  THR29      -0.2208
     15  CG2       72.6280  -23.9850   91.9510 C.3    29  THR29       0.0378
     16  N         67.8970  -25.1180   97.2390 N.3    31  ARG31      -0.1245
     17  CA        68.3710  -24.4810   98.4710 C.3    31  ARG31       0.1563
     18  C         68.3860  -25.4080   99.6890 C.2    31  ARG31       0.2260
     19  O         67.5330  -25.3230  100.5770 O.2    31  ARG31      -0.2867
     20  CB        67.5480  -23.2150   98.7510 C.3    31  ARG31       0.0307
     21  CG        67.7410  -22.1420   97.6780 C.3    31  ARG31       0.0489
     22  CD        67.0800  -20.8170   98.0360 C.3    31  ARG31       0.2205
     23  NE        67.5920  -20.2880   99.2960 N.pl3  31  ARG31      -0.0865
     24  CZ        66.9940  -20.4380  100.4720 C.cat  31  ARG31       0.5346
     25  NH1       65.8420  -21.0980  100.5590 N.pl3  31  ARG31       0.1354
     26  NH2       67.5600  -19.9430  101.5630 N.pl3  31  ARG31       0.1354
     27  N         64.8520  -17.5830  100.3160 N.3    87  SER87      -0.1202
     28  CA        64.9490  -17.8830   98.8920 C.3    87  SER87       0.2020
     29  C         66.2060  -17.3040   98.2580 C.2    87  SER87       0.2619
     30  O         67.1200  -16.8610   98.9490 O.2    87  SER87      -0.2717
     31  CB        63.7260  -17.3130   98.1730 C.3    87  SER87       0.2103
     32  OG        63.8230  -17.5060   96.7780 O.3    87  SER87      -0.2182
     33  N         66.2430  -17.3250   96.9300 N.am   88  HIS88      -0.1961
     34  CA        67.3530  -16.7580   96.1720 C.3    88  HIS88       0.1787
     35  C         66.9830  -15.3050   95.8840 C.2    88  HIS88       0.2621
     36  O         65.8530  -14.8830   96.1290 O.2    88  HIS88      -0.2715
     37  CB        67.5400  -17.4830   94.8330 C.3    88  HIS88       0.0785
     38  CG        68.2090  -18.8140   94.9470 C.ar   88  HIS88       0.0821
     39  ND1       69.4740  -18.9720   95.4710 N.ar   88  HIS88      -0.2267
     40  CD2       67.8080  -20.0500   94.5620 C.ar   88  HIS88       0.1154
     41  CE1       69.8260  -20.2430   95.4010 C.ar   88  HIS88       0.1986
     42  NE2       68.8300  -20.9180   94.8510 N.ar   88  HIS88      -0.2212
     43  N         67.9320  -14.5430   95.3550 N.am   89  GLY89      -0.1940
     44  CA        67.6480  -13.1610   95.0240 C.3    89  GLY89       0.2014
     45  C         68.8570  -12.4120   94.5160 C.2    89  GLY89       0.2638
     46  O         69.9400  -12.9840   94.3850 O.2    89  GLY89      -0.2714
     47  N         68.6480  -11.1380   94.2000 N.am   90  GLU90      -0.1977
     48  CA        69.6990  -10.2320   93.7430 C.3    90  GLU90       0.1602
     49  C         69.2740   -8.9290   94.3820 C.2    90  GLU90       0.2287
     50  O         68.2200   -8.8740   95.0120 O.2    90  GLU90      -0.2864
     51  CB        69.7080  -10.0910   92.2180 C.3    90  GLU90       0.0415
     52  CG        68.7040  -10.9670   91.4820 C.3    90  GLU90       0.1163
     53  CD        68.9280  -10.9830   89.9760 C.2    90  GLU90       0.3649
     54  OE1       70.0530  -11.3230   89.5550 O.co2  90  GLU90      -0.2457
     55  OE2       67.9830  -10.6620   89.2140 O.co2  90  GLU90      -0.2457
     56  N         63.3620  -14.4090   94.6550 N.3    95  PHE95      -0.1241
     57  CA        62.8020  -15.3910   93.7320 C.3    95  PHE95       0.1605
     58  C         61.6690  -16.2860   94.1920 C.2    95  PHE95       0.2264
     59  O         61.6730  -16.8190   95.2990 O.2    95  PHE95      -0.2867
     60  CB        63.8960  -16.3200   93.2160 C.3    95  PHE95       0.0534
     61  CG        64.7820  -15.7050   92.1930 C.ar   95  PHE95      -0.0203
     62  CD1       65.7200  -14.7500   92.5530 C.ar   95  PHE95      -0.0042
     63  CD2       64.6860  -16.0840   90.8630 C.ar   95  PHE95      -0.0042
     64  CE1       66.5540  -14.1800   91.6000 C.ar   95  PHE95      -0.0003
     65  CE2       65.5130  -15.5220   89.9040 C.ar   95  PHE95      -0.0003
     66  CZ        66.4490  -14.5680   90.2700 C.ar   95  PHE95      -0.0000
     67  N         66.4320  -13.7950  103.8590 N.3   128  GLN128     -0.1231
     68  CA        67.6130  -14.6330  103.7280 C.3   128  GLN128      0.1698
     69  C         67.7980  -14.8070  102.2370 C.2   128  GLN128      0.2592
     70  O         67.1410  -15.6360  101.6130 O.2   128  GLN128     -0.2718
     71  CB        67.4010  -15.9840  104.4020 C.3   128  GLN128      0.0381
     72  CG        68.4360  -17.0490  104.0490 C.3   128  GLN128      0.0905
     73  CD        69.8720  -16.5800  104.2020 C.2   128  GLN128      0.2608
     74  OE1       70.1930  -15.7970  105.0980 O.2   128  GLN128     -0.2717
     75  NE2       70.7510  -17.0740  103.3330 N.am  128  GLN128     -0.0878
     76  N         68.6750  -13.9910  101.6650 N.am  129  ALA129     -0.1966
     77  CA        68.9330  -14.0450  100.2360 C.3   129  ALA129      0.1728
     78  C         70.1340  -13.2230   99.7700 C.2   129  ALA129      0.2616
     79  O         70.6650  -12.3690  100.4760 O.2   129  ALA129     -0.2715
     80  CB        67.6840  -13.6190   99.4710 C.3   129  ALA129      0.0334
     81  N         70.5160  -13.5290   98.5460 N.am  130  CYS130     -0.1968
     82  CA        71.6220  -12.9880   97.7500 C.3   130  CYS130      0.1712
     83  C         71.1370  -11.6220   97.3230 C.2   130  CYS130      0.2296
     84  O         69.9530  -11.4200   97.0420 O.2   130  CYS130     -0.2864
     85  CB        71.7120  -14.0250   96.6350 C.3   130  CYS130      0.0983
     86  SG        72.1600  -15.4320   97.6470 S.3   130  CYS130     -0.0798
     87  N         73.3020  -10.0750   95.2790 N.3   132  GLY132     -0.1210
     88  CA        74.3130   -9.9330   94.2500 C.3   132  GLY132      0.1956
     89  C         75.2610  -11.1130   94.2590 C.2   132  GLY132      0.2612
     90  O         75.0390  -12.0940   94.9710 O.2   132  GLY132     -0.2717
     91  N         76.3250  -11.0160   93.4720 N.am  133  THR133     -0.1952
     92  CA        77.3170  -12.0830   93.3830 C.3   133  THR133      0.1897
     93  C         78.7210  -11.5930   93.7140 C.2   133  THR133      0.2313
     94  O         79.7040  -12.0730   93.1560 O.2   133  THR133     -0.2863
     95  CB        77.3420  -12.6810   91.9820 C.3   133  THR133      0.1794
     96  OG1       77.5730  -11.6370   91.0260 O.3   133  THR133     -0.2208
     97  CG2       76.0260  -13.3450   91.6820 C.3   133  THR133      0.0378
     98  N         81.8580  -11.0990   96.3670 N.3   135  LEU135     -0.1245
     99  CA        82.3870  -11.8970   97.4710 C.3   135  LEU135      0.1561
    100  C         83.2290  -11.0920   98.4520 C.2   135  LEU135      0.2260
    101  O         84.1030  -10.3190   98.0550 O.2   135  LEU135     -0.2867
    102  CB        83.2300  -13.0450   96.9220 C.3   135  LEU135      0.0270
    103  CG        82.5800  -14.0020   95.9200 C.3   135  LEU135      0.0019
    104  CD1       83.6660  -14.6230   95.0510 C.3   135  LEU135      0.0001
    105  CD2       81.7830  -15.0770   96.6410 C.3   135  LEU135      0.0001
@<TRIPOS>BOND
     1     1     2    1
     2    55    53   ar
     3    54    53   ar
     4    65    66   ar
     5    65    63   ar
     6    53    52    1
     7    66    64   ar
     8     2     3    1
     9     2     5    1
    10     7     6    1
    11     7     8    1
    12     4     3    2
    13     6     5    1
    14    63    61   ar
    15     3     9   am
    16    96    95    1
    17    52    51    1
    18    64    62   ar
    19    97    95    1
    20     9    10    1
    21    15    13    1
    22    95    92    1
    23    61    62   ar
    24    61    60    1
    25    51    48    1
    26    10    13    1
    27    10    11    1
    28    13    14    1
    29    94    93    2
    30    60    57    1
    31    92    91    1
    32    92    93    1
    33    91    89   am
    34    11    12    2
    35    57    58    1
    36    57    56    1
    37    48    47    1
    38    48    49    1
    39    58    59    2
    40    47    45   am
    41    88    89    1
    42    88    87    1
    43    89    90    2
    44    49    50    2
    45    46    45    2
    46    45    44    1
    47    40    42   ar
    48    40    38   ar
    49    37    38    1
    50    37    34    1
    51    42    41   ar
    52    38    39   ar
    53    44    43    1
    54   104   103    1
    55    43    35   am
    56    41    39   ar
    57    35    36    2
    58    35    34    1
    59   103   105    1
    60   103   102    1
    61    34    33    1
    62    98    99    1
    63    85    86    1
    64    85    82    1
    65    32    31    1
    66   102    99    1
    67    33    29   am
    68    84    83    2
    69    16    17    1
    70    83    82    1
    71    99   100    1
    72    21    22    1
    73    21    20    1
    74    82    81    1
    75    22    23    1
    76   101   100    2
    77    31    28    1
    78    29    28    1
    79    29    30    2
    80    17    20    1
    81    17    18    1
    82    81    78   am
    83    28    27    1
    84    23    24    2
    85    80    77    1
    86    18    19    2
    87    78    77    1
    88    78    79    2
    89    77    76    1
    90    24    25    1
    91    24    26    1
    92    70    69    2
    93    76    69   am
    94    69    68    1
    95    75    73   am
    96    68    67    1
    97    68    71    1
    98    72    73    1
    99    72    71    1
   100    73    74    2
