@<TRIPOS>MOLECULE
tmp/1ri2A00.pdb
 196 186 0 0 0
SMALL
GASTEIGER

@<TRIPOS>ATOM
      1  N         13.4770   46.4660   91.9090 N.3     6  ILE6       -0.1231
      2  CA        13.4040   45.4360   90.8860 C.3     6  ILE6        0.1692
      3  C         13.0960   44.1060   91.5430 C.2     6  ILE6        0.2591
      4  O         12.2430   43.3540   91.0810 O.2     6  ILE6       -0.2718
      5  CB        14.7230   45.3110   90.1160 C.3     6  ILE6        0.0266
      6  CG1       15.1600   46.6850   89.6080 C.3     6  ILE6        0.0019
      7  CG2       14.5450   44.3840   88.9350 C.3     6  ILE6        0.0020
      8  CD1       16.5390   46.6990   89.0140 C.3     6  ILE6        0.0001
      9  N         13.7870   43.8190   92.6350 N.am    7  ARG7       -0.1980
     10  CA        13.5580   42.5760   93.3380 C.3     7  ARG7        0.1597
     11  C         12.1110   42.5750   93.8170 C.2     7  ARG7        0.2287
     12  O         11.4600   41.5370   93.8220 O.2     7  ARG7       -0.2864
     13  CB        14.5110   42.4500   94.5250 C.3     7  ARG7        0.0334
     14  CG        15.9820   42.2360   94.1560 C.3     7  ARG7        0.0492
     15  CD        16.8340   42.0190   95.4230 C.3     7  ARG7        0.2205
     16  NE        18.2450   41.7470   95.1430 N.pl3   7  ARG7       -0.0865
     17  CZ        19.1990   41.6460   96.0730 C.cat   7  ARG7        0.5346
     18  NH1       18.9030   41.7930   97.3580 N.pl3   7  ARG7        0.1354
     19  NH2       20.4590   41.3990   95.7200 N.pl3   7  ARG7        0.1354
     20  N          9.7780   42.1630   90.5520 N.3    10  ASN10      -0.1225
     21  CA         9.7750   40.7720   90.1070 C.3    10  ASN10       0.1785
     22  C          9.0440   39.8770   91.1400 C.2    10  ASN10       0.2597
     23  O          8.2820   38.9960   90.7580 O.2    10  ASN10      -0.2718
     24  CB        11.2190   40.3370   89.8130 C.3    10  ASN10       0.1169
     25  CG        11.8410   41.1500   88.6900 C.2    10  ASN10       0.2627
     26  OD1       13.0510   41.1540   88.4990 O.2    10  ASN10      -0.2716
     27  ND2       11.0030   41.8470   87.9390 N.am   10  ASN10      -0.0877
     28  N          9.2420   40.1370   92.4310 N.am   11  ASN11      -0.1974
     29  CA         8.5520   39.3880   93.4600 C.3    11  ASN11       0.1688
     30  C          7.0620   39.6890   93.4560 C.2    11  ASN11       0.2292
     31  O          6.2460   38.8100   93.7010 O.2    11  ASN11      -0.2864
     32  CB         9.1000   39.7180   94.8390 C.3    11  ASN11       0.1181
     33  CG        10.2110   38.8020   95.2510 C.2    11  ASN11       0.2629
     34  OD1       11.2850   38.8140   94.6670 O.2    11  ASN11      -0.2716
     35  ND2        9.9460   37.9680   96.2550 N.am   11  ASN11      -0.0877
     36  N          5.4770   38.0080   90.4100 N.3    14  LYS14      -0.1245
     37  CA         5.4720   36.5660   90.6360 C.3    14  LYS14       0.1561
     38  C          4.3090   36.1980   91.5440 C.2    14  LYS14       0.2260
     39  O          3.5970   35.2360   91.3040 O.2    14  LYS14      -0.2867
     40  CB         6.7980   36.1350   91.2780 C.3    14  LYS14       0.0271
     41  CG         7.8400   35.6470   90.2770 C.3    14  LYS14       0.0035
     42  CD         9.2330   35.6060   90.8690 C.3    14  LYS14       0.0206
     43  CE         9.2500   34.9630   92.2350 C.3    14  LYS14       0.1093
     44  NZ        10.6110   35.1110   92.8440 N.3    14  LYS14      -0.1314
     45  N         16.2890   28.8580   96.9710 N.3    35  LYS35      -0.1245
     46  CA        16.2300   28.8860   98.4250 C.3    35  LYS35       0.1561
     47  C         14.8050   29.0640   98.9220 C.2    35  LYS35       0.2260
     48  O         14.5710   29.5830  100.0130 O.2    35  LYS35      -0.2867
     49  CB        17.1500   29.9830   99.0170 C.3    35  LYS35       0.0271
     50  CG        17.1580   31.3320   98.2990 C.3    35  LYS35       0.0035
     51  CD        18.2050   31.3610   97.1760 C.3    35  LYS35       0.0206
     52  CE        18.0850   32.6210   96.2970 C.3    35  LYS35       0.1093
     53  NZ        19.1550   32.7370   95.2580 N.3    35  LYS35      -0.1314
     54  N         12.0240   30.9430   97.6470 N.3    37  GLY37      -0.1225
     55  CA        11.6080   32.3170   97.7770 C.3    37  GLY37       0.1811
     56  C         10.1250   32.5060   97.5330 C.2    37  GLY37       0.2280
     57  O          9.5690   33.5510   97.8710 O.2    37  GLY37      -0.2866
     58  N          6.2890   31.9270  100.8690 N.3    40  LEU40      -0.1245
     59  CA         5.4070   32.9280  101.4450 C.3    40  LEU40       0.1561
     60  C          4.2100   33.2360  100.5510 C.2    40  LEU40       0.2260
     61  O          3.0860   33.4190  101.0310 O.2    40  LEU40      -0.2867
     62  CB         6.1860   34.2130  101.7230 C.3    40  LEU40       0.0270
     63  CG         7.4790   34.0800  102.5430 C.3    40  LEU40       0.0019
     64  CD1        7.1400   33.6130  103.9390 C.3    40  LEU40       0.0001
     65  CD2        8.4630   33.1180  101.8630 C.3    40  LEU40       0.0001
     66  N         14.1600   27.2160  105.3490 N.3    66  ARG66      -0.1245
     67  CA        13.1460   28.2600  105.3360 C.3    66  ARG66       0.1563
     68  C         11.7860   27.7660  105.7910 C.2    66  ARG66       0.2260
     69  O         11.1660   28.3500  106.6840 O.2    66  ARG66      -0.2867
     70  CB        13.0050   28.8790  103.9480 C.3    66  ARG66       0.0307
     71  CG        13.6000   30.2750  103.8390 C.3    66  ARG66       0.0489
     72  CD        12.8900   31.1120  102.7960 C.3    66  ARG66       0.2205
     73  NE        13.4330   32.4600  102.7100 N.pl3  66  ARG66      -0.0865
     74  CZ        13.4790   33.3180  103.7250 C.cat  66  ARG66       0.5346
     75  NH1       13.0110   32.9640  104.9190 N.pl3  66  ARG66       0.1354
     76  NH2       13.9920   34.5350  103.5460 N.pl3  66  ARG66       0.1354
     77  N         12.2110   31.8380   86.5360 N.3   101  PHE101     -0.1241
     78  CA        13.5650   32.2050   86.0660 C.3   101  PHE101      0.1605
     79  C         14.5790   31.0610   85.8820 C.2   101  PHE101      0.2264
     80  O         15.7860   31.2450   86.1060 O.2   101  PHE101     -0.2867
     81  CB        14.1790   33.2310   87.0080 C.3   101  PHE101      0.0534
     82  CG        13.3910   34.5070   87.1200 C.ar  101  PHE101     -0.0203
     83  CD1       12.7560   34.8390   88.3140 C.ar  101  PHE101     -0.0042
     84  CD2       13.2910   35.3860   86.0390 C.ar  101  PHE101     -0.0042
     85  CE1       12.0390   36.0170   88.4400 C.ar  101  PHE101     -0.0003
     86  CE2       12.5710   36.5770   86.1520 C.ar  101  PHE101     -0.0003
     87  CZ        11.9430   36.8950   87.3550 C.ar  101  PHE101     -0.0000
     88  N         14.7540   28.4550   81.2610 N.3   104  HIS104     -0.1226
     89  CA        15.6390   28.7240   80.1470 C.3   104  HIS104      0.1752
     90  C         16.8350   27.7630   80.1270 C.2   104  HIS104      0.2596
     91  O         17.3920   27.4730   79.0670 O.2   104  HIS104     -0.2718
     92  CB        16.1110   30.1790   80.1720 C.3   104  HIS104      0.0759
     93  CG        17.1660   30.4570   81.1940 C.ar  104  HIS104      0.0818
     94  ND1       18.3950   29.8320   81.1740 N.ar  104  HIS104     -0.2268
     95  CD2       17.1880   31.3070   82.2500 C.ar  104  HIS104      0.1154
     96  CE1       19.1330   30.2880   82.1750 C.ar  104  HIS104      0.1986
     97  NE2       18.4250   31.1810   82.8400 N.ar  104  HIS104     -0.2212
     98  N         17.2160   27.2640   81.2990 N.am  105  TYR105     -0.1976
     99  CA        18.3150   26.3130   81.4210 C.3   105  TYR105      0.1639
    100  C         17.9040   25.0210   80.7470 C.2   105  TYR105      0.2290
    101  O         18.7380   24.2000   80.4130 O.2   105  TYR105     -0.2864
    102  CB        18.6200   26.0120   82.8930 C.3   105  TYR105      0.0560
    103  CG        19.4940   27.0240   83.5900 C.ar  105  TYR105     -0.0198
    104  CD1       19.0100   27.7710   84.6640 C.ar  105  TYR105     -0.0009
    105  CD2       20.8170   27.2300   83.1710 C.ar  105  TYR105     -0.0009
    106  CE1       19.8250   28.7000   85.3030 C.ar  105  TYR105      0.0417
    107  CE2       21.6400   28.1530   83.7980 C.ar  105  TYR105      0.0417
    108  CZ        21.1400   28.8890   84.8650 C.ar  105  TYR105      0.1957
    109  OH        21.9480   29.8230   85.4780 O.3   105  TYR105     -0.2866
    110  N         13.3120   35.1970   80.5080 N.3   135  PRO135     -0.2116
    111  CA        13.7870   36.3630   79.7650 C.3   135  PRO135      0.1372
    112  C         13.2020   36.2750   78.3570 C.2   135  PRO135      0.2244
    113  O         13.0440   35.1770   77.8200 O.2   135  PRO135     -0.2868
    114  CB        15.2990   36.1710   79.7740 C.3   135  PRO135      0.0268
    115  CG        15.5280   35.5010   81.0880 C.3   135  PRO135      0.0207
    116  CD        14.4520   34.4570   81.0680 C.3   135  PRO135      0.0892
    117  N         23.4810   33.8520   75.7060 N.3   172  TYR172     -0.1241
    118  CA        23.9980   35.1900   76.0280 C.3   172  TYR172      0.1605
    119  C         24.5350   35.2330   77.4800 C.2   172  TYR172      0.2264
    120  O         24.1030   34.4460   78.3240 O.2   172  TYR172     -0.2867
    121  CB        22.8640   36.2300   75.8450 C.3   172  TYR172      0.0534
    122  CG        21.7060   36.0740   76.8210 C.ar  172  TYR172     -0.0201
    123  CD1       21.7300   36.7030   78.0590 C.ar  172  TYR172     -0.0009
    124  CD2       20.6330   35.2230   76.5370 C.ar  172  TYR172     -0.0009
    125  CE1       20.7260   36.4890   78.9920 C.ar  172  TYR172      0.0417
    126  CE2       19.6190   34.9940   77.4660 C.ar  172  TYR172      0.0417
    127  CZ        19.6740   35.6220   78.6900 C.ar  172  TYR172      0.1957
    128  OH        18.7010   35.3590   79.6370 O.3   172  TYR172     -0.2866
    129  N         24.6690   36.9660   81.0400 N.3   174  PHE174     -0.1241
    130  CA        23.8680   37.8950   81.8220 C.3   174  PHE174      0.1605
    131  C         24.6220   38.3230   83.0690 C.2   174  PHE174      0.2264
    132  O         25.3920   37.5460   83.6380 O.2   174  PHE174     -0.2867
    133  CB        22.5350   37.2470   82.2090 C.3   174  PHE174      0.0534
    134  CG        21.5820   38.1750   82.9250 C.ar  174  PHE174     -0.0203
    135  CD1       21.0960   39.3160   82.3050 C.ar  174  PHE174     -0.0042
    136  CD2       21.1350   37.8800   84.2050 C.ar  174  PHE174     -0.0042
    137  CE1       20.1730   40.1430   82.9550 C.ar  174  PHE174     -0.0003
    138  CE2       20.2130   38.7040   84.8580 C.ar  174  PHE174     -0.0003
    139  CZ        19.7350   39.8310   84.2290 C.ar  174  PHE174     -0.0000
    140  N         23.9700   40.7180   86.7410 N.3   176  LEU176     -0.1245
    141  CA        23.0530   41.5010   87.5290 C.3   176  LEU176      0.1561
    142  C         23.7470   41.9000   88.8200 C.2   176  LEU176      0.2260
    143  O         24.6340   41.1910   89.3120 O.2   176  LEU176     -0.2867
    144  CB        21.7850   40.6960   87.8040 C.3   176  LEU176      0.0270
    145  CG        20.6490   41.4520   88.4920 C.3   176  LEU176      0.0019
    146  CD1       20.2640   42.6990   87.7040 C.3   176  LEU176      0.0001
    147  CD2       19.4670   40.5210   88.6330 C.3   176  LEU176      0.0001
    148  N         24.0550   39.7210   92.5210 N.3   179  SER179     -0.1202
    149  CA        23.5870   38.3940   92.1340 C.3   179  SER179      0.2020
    150  C         24.3550   37.8010   90.9550 C.2   179  SER179      0.2618
    151  O         25.5780   37.6450   90.9970 O.2   179  SER179     -0.2717
    152  CB        22.0910   38.4370   91.7960 C.3   179  SER179      0.2103
    153  OG        21.8350   39.2450   90.6620 O.3   179  SER179     -0.2182
    154  N         23.6080   37.4530   89.9130 N.am  180  VAL180     -0.1979
    155  CA        24.1530   36.8770   88.6940 C.3   180  VAL180      0.1595
    156  C         25.3690   37.6420   88.1930 C.2   180  VAL180      0.2287
    157  O         25.4500   38.8630   88.3240 O.2   180  VAL180     -0.2864
    158  CB        23.0940   36.8800   87.5810 C.3   180  VAL180      0.0276
    159  CG1       23.7310   36.5090   86.2620 C.3   180  VAL180      0.0022
    160  CG2       21.9720   35.9170   87.9310 C.3   180  VAL180      0.0022
    161  N         23.3170   32.2590   79.6530 N.3   185  GLU185     -0.1245
    162  CA        21.9740   31.7280   79.6370 C.3   185  GLU185      0.1567
    163  C         21.5500   31.4700   78.2130 C.2   185  GLU185      0.2260
    164  O         21.9290   32.2030   77.3100 O.2   185  GLU185     -0.2867
    165  CB        21.0400   32.7170   80.3230 C.3   185  GLU185      0.0388
    166  CG        21.6350   33.1980   81.6300 C.3   185  GLU185      0.1160
    167  CD        20.6180   33.7690   82.5800 C.2   185  GLU185      0.3649
    168  OE1       19.6430   34.3830   82.1020 O.co2 185  GLU185     -0.2457
    169  OE2       20.8080   33.6060   83.8060 O.co2 185  GLU185     -0.2457
    170  N         15.3630   46.5630   83.3000 N.3   240  VAL240     -0.1245
    171  CA        15.6620   45.2030   83.6810 C.3   240  VAL240      0.1561
    172  C         14.3930   44.3860   83.7850 C.2   240  VAL240      0.2260
    173  O         14.3280   43.2650   83.2830 O.2   240  VAL240     -0.2867
    174  CB        16.3730   45.1550   85.0260 C.3   240  VAL240      0.0252
    175  CG1       16.8490   43.7390   85.3080 C.3   240  VAL240      0.0019
    176  CG2       17.5200   46.1300   85.0340 C.3   240  VAL240      0.0019
    177  N         12.9930   42.7380   80.4850 N.3   243  ILE243     -0.1231
    178  CA        13.6520   41.6040   79.8420 C.3   243  ILE243      0.1692
    179  C         12.7630   40.3680   79.8990 C.2   243  ILE243      0.2592
    180  O         12.7050   39.5790   78.9550 O.2   243  ILE243     -0.2718
    181  CB        14.9480   41.2940   80.6000 C.3   243  ILE243      0.0266
    182  CG1       15.7660   42.5670   80.7060 C.3   243  ILE243      0.0019
    183  CG2       15.7250   40.1770   79.9150 C.3   243  ILE243      0.0020
    184  CD1       17.0250   42.4080   81.5020 C.3   243  ILE243      0.0001
    185  N         12.0600   40.2390   81.0260 N.am  244  TYR244     -0.1976
    186  CA        11.2030   39.0940   81.3080 C.3   244  TYR244      0.1639
    187  C          9.7750   39.1780   80.8810 C.2   244  TYR244      0.2290
    188  O          9.2660   40.2470   80.5720 O.2   244  TYR244     -0.2864
    189  CB        11.2000   38.7660   82.8010 C.3   244  TYR244      0.0560
    190  CG        12.5490   38.8850   83.4480 C.ar  244  TYR244     -0.0198
    191  CD1       12.9200   40.0570   84.1010 C.ar  244  TYR244     -0.0009
    192  CD2       13.4850   37.8470   83.3520 C.ar  244  TYR244     -0.0009
    193  CE1       14.1740   40.1980   84.6400 C.ar  244  TYR244      0.0417
    194  CE2       14.7540   37.9830   83.8910 C.ar  244  TYR244      0.0417
    195  CZ        15.0860   39.1720   84.5310 C.ar  244  TYR244      0.1957
    196  OH        16.3430   39.3470   85.0540 O.3   244  TYR244     -0.2866
@<TRIPOS>BOND
     1   117   118    1
     2   121   118    1
     3   121   122    1
     4   118   119    1
     5   124   122   ar
     6   124   126   ar
     7   122   123   ar
     8   164   163    2
     9   126   127   ar
    10   119   120    2
    11   113   112    2
    12   123   125   ar
    13   163   162    1
    14   112   111    1
    15   127   125   ar
    16   127   128    1
    17   180   179    2
    18    91    90    2
    19   162   161    1
    20   162   165    1
    21   111   114    1
    22   111   110    1
    23   114   115    1
    24   178   179    1
    25   178   177    1
    26   178   181    1
    27   179   185   am
    28   183   181    1
    29    90    89    1
    30    90    98   am
    31    89    92    1
    32    89    88    1
    33    92    93    1
    34   165   166    1
    35   101   100    2
    36   110   116    1
    37   188   187    2
    38   181   182    1
    39   182   184    1
    40   100    99    1
    41   187   186    1
    42   185   186    1
    43   129   130    1
    44   116   115    1
    45    94    93   ar
    46    94    96   ar
    47    93    95   ar
    48    98    99    1
    49   186   189    1
    50    99   102    1
    51   166   167    1
    52   130   133    1
    53   130   131    1
    54   168   167   ar
    55    96    97   ar
    56   133   134    1
    57    95    97   ar
    58   135   134   ar
    59   135   137   ar
    60   167   169   ar
    61   189   190    1
    62   102   103    1
    63   134   136   ar
    64   137   139   ar
    65   131   132    2
    66   105   103   ar
    67   105   107   ar
    68   173   172    2
    69   170   171    1
    70   192   190   ar
    71   192   194   ar
    72   190   191   ar
    73   103   104   ar
    74   171   172    1
    75   171   174    1
    76   107   108   ar
    77   194   195   ar
    78   191   193   ar
    79   136   138   ar
    80   139   138   ar
    81   195   193   ar
    82   195   196    1
    83   104   106   ar
    84   108   106   ar
    85   108   109    1
    86   174   176    1
    87   174   175    1
    88    79    78    1
    89    79    80    2
    90    84    86   ar
    91    84    82   ar
    92    78    77    1
    93    78    81    1
    94    86    87   ar
    95   159   158    1
    96   140   141    1
    97    81    82    1
    98    82    83   ar
    99    87    85   ar
   100   141   144    1
   101   141   142    1
   102   158   160    1
   103   158   155    1
   104   146   145    1
   105   144   145    1
   106    27    25   am
   107   156   157    2
   108   156   155    1
   109    83    85   ar
   110   145   147    1
   111    26    25    2
   112    25    24    1
   113   155   154    1
   114   142   143    2
   115     7     5    1
   116     8     6    1
   117     6     5    1
   118    24    21    1
   119   154   150   am
   120    21    20    1
   121    21    22    1
   122     5     2    1
   123    41    42    1
   124    41    40    1
   125    36    37    1
   126    37    40    1
   127    37    38    1
   128   153   152    1
   129    23    22    2
   130    42    43    1
   131     2     3    1
   132     2     1    1
   133   150   151    2
   134   150   149    1
   135     4     3    2
   136    22    28   am
   137    39    38    2
   138     3     9   am
   139   152   149    1
   140   149   148    1
   141    43    44    1
   142    28    29    1
   143     9    10    1
   144    10    11    1
   145    10    13    1
   146    30    29    1
   147    30    31    2
   148    29    32    1
   149    11    12    2
   150    14    13    1
   151    14    15    1
   152    34    33    2
   153    32    33    1
   154    16    15    1
   155    16    17    2
   156    33    35   am
   157    53    52    1
   158    19    17    1
   159    17    18    1
   160    52    51    1
   161    45    46    1
   162    51    50    1
   163    56    55    1
   164    56    57    2
   165    54    55    1
   166    50    49    1
   167    46    47    1
   168    46    49    1
   169    47    48    2
   170    60    61    2
   171    60    59    1
   172    58    59    1
   173    59    62    1
   174    62    63    1
   175    65    63    1
   176    63    64    1
   177    73    72    1
   178    73    74    2
   179    72    71    1
   180    76    74    1
   181    74    75    1
   182    71    70    1
   183    70    67    1
   184    67    66    1
   185    67    68    1
   186    68    69    2
