@<TRIPOS>MOLECULE
tmp/1ri4A00.pdb
 163 156 0 0 0
SMALL
GASTEIGER

@<TRIPOS>ATOM
      1  N          5.9800   37.9050   91.2830 N.3    14  LYS14      -0.1245
      2  CA         5.9860   36.4890   91.5740 C.3    14  LYS14       0.1561
      3  C          4.8160   36.1230   92.4800 C.2    14  LYS14       0.2260
      4  O          4.2000   35.0680   92.3260 O.2    14  LYS14      -0.2867
      5  CB         7.3050   36.1420   92.2480 C.3    14  LYS14       0.0271
      6  CG         7.9220   34.8490   91.7710 C.3    14  LYS14       0.0035
      7  CD         9.4360   34.9410   91.7670 C.3    14  LYS14       0.0206
      8  CE        10.0160   35.0190   93.1610 C.3    14  LYS14       0.1093
      9  NZ        11.4160   35.4710   93.0410 N.3    14  LYS14      -0.1314
     10  N          8.2430   23.3830   93.1860 N.3    30  ASP30      -0.1239
     11  CA         9.0880   24.5290   92.8750 C.3    30  ASP30       0.1674
     12  C         10.4200   24.0640   92.2520 C.2    30  ASP30       0.2266
     13  O         11.3280   23.6490   92.9740 O.2    30  ASP30      -0.2867
     14  CB         9.3500   25.3240   94.1630 C.3    30  ASP30       0.1410
     15  CG         9.5540   26.8180   93.9200 C.2    30  ASP30       0.3668
     16  OD1        9.9310   27.5280   94.8670 O.co2  30  ASP30      -0.2456
     17  OD2        9.3340   27.2900   92.7950 O.co2  30  ASP30      -0.2456
     18  N         13.9370   24.6000   90.6950 N.3    32  GLY32      -0.1210
     19  CA        14.9490   25.6270   90.8150 C.3    32  GLY32       0.1956
     20  C         14.5490   26.5780   91.9340 C.2    32  GLY32       0.2612
     21  O         14.8670   27.7610   91.8740 O.2    32  GLY32      -0.2717
     22  N         13.8680   26.0490   92.9550 N.am   33  CYS33      -0.1956
     23  CA        13.3790   26.8170   94.1140 C.3    33  CYS33       0.1843
     24  C         14.4340   27.7570   94.6780 C.2    33  CYS33       0.2626
     25  O         14.1120   28.8080   95.2340 O.2    33  CYS33      -0.2714
     26  CB        12.9400   25.8540   95.2170 C.3    33  CYS33       0.0997
     27  SG        14.3360   24.9360   95.8590 S.3    33  CYS33      -0.0797
     28  N         15.7030   27.3620   94.5510 N.am   34  GLY34      -0.1940
     29  CA        16.7960   28.1760   95.0710 C.3    34  GLY34       0.2014
     30  C         16.8090   28.1970   96.5910 C.2    34  GLY34       0.2638
     31  O         16.6650   27.1480   97.2230 O.2    34  GLY34      -0.2714
     32  N         16.9760   29.3780   97.1870 N.am   35  LYS35      -0.1977
     33  CA        17.0020   29.4870   98.6540 C.3    35  LYS35       0.1596
     34  C         15.6140   29.4400   99.2570 C.2    35  LYS35       0.2287
     35  O         15.4260   29.7160  100.4470 O.2    35  LYS35      -0.2864
     36  CB        17.6870   30.7700   99.1020 C.3    35  LYS35       0.0298
     37  CG        19.1010   30.9230   98.6030 C.3    35  LYS35       0.0038
     38  CD        19.7320   32.1840   99.1740 C.3    35  LYS35       0.0206
     39  CE        21.0510   32.5520   98.4790 C.3    35  LYS35       0.1093
     40  NZ        20.8750   32.8930   97.0280 N.3    35  LYS35      -0.1314
     41  N         12.9960   31.3390   98.4330 N.3    37  GLY37      -0.1210
     42  CA        12.4590   32.6640   98.6510 C.3    37  GLY37       0.1956
     43  C         10.9830   32.8340   98.3450 C.2    37  GLY37       0.2611
     44  O         10.4970   33.9590   98.3710 O.2    37  GLY37      -0.2717
     45  N         10.2720   31.7450   98.0530 N.am   38  ASP38      -0.1973
     46  CA         8.8360   31.8130   97.7570 C.3    38  ASP38       0.1709
     47  C          7.9680   31.0850   98.7810 C.2    38  ASP38       0.2293
     48  O          6.7350   31.0820   98.6830 O.2    38  ASP38      -0.2864
     49  CB         8.5390   31.2340   96.3760 C.3    38  ASP38       0.1436
     50  CG         8.8350   32.2030   95.2600 C.2    38  ASP38       0.3671
     51  OD1        9.1130   33.3880   95.5420 O.co2  38  ASP38      -0.2456
     52  OD2        8.7690   31.7780   94.0910 O.co2  38  ASP38      -0.2456
     53  N         16.2520   21.5950   93.5120 N.3    54  ASP54      -0.1225
     54  CA        17.2700   22.4910   92.9620 C.3    54  ASP54       0.1805
     55  C         18.5710   21.6930   92.7980 C.2    54  ASP54       0.2598
     56  O         18.8530   20.7740   93.5780 O.2    54  ASP54      -0.2718
     57  CB        17.4560   23.7230   93.8750 C.3    54  ASP54       0.1424
     58  CG        18.2050   24.8810   93.1870 C.2    54  ASP54       0.3668
     59  OD1       19.4340   24.8020   93.0850 O.co2  54  ASP54      -0.2456
     60  OD2       17.5670   25.8720   92.7570 O.co2  54  ASP54      -0.2456
     61  N         19.3450   22.0280   91.7710 N.am   55  ILE55      -0.1966
     62  CA        20.5810   21.3130   91.4900 C.3    55  ILE55       0.1727
     63  C         21.6720   21.7180   92.4560 C.2    55  ILE55       0.2616
     64  O         22.5610   20.9330   92.7830 O.2    55  ILE55      -0.2715
     65  CB        21.0430   21.5730   90.0220 C.3    55  ILE55       0.0290
     66  CG1       22.1310   20.5760   89.6160 C.3    55  ILE55       0.0022
     67  CG2       21.5390   23.0120   89.8760 C.3    55  ILE55       0.0023
     68  CD1       22.4970   20.6250   88.1370 C.3    55  ILE55       0.0001
     69  N         21.5990   22.9470   92.9320 N.am   56  ALA56      -0.1977
     70  CA        22.6020   23.4390   93.8540 C.3    56  ALA56       0.1597
     71  C         22.2190   23.1010   95.2830 C.2    56  ALA56       0.2287
     72  O         21.2420   23.6220   95.8130 O.2    56  ALA56      -0.2864
     73  CB        22.7680   24.9350   93.6810 C.3    56  ALA56       0.0319
     74  N         21.9380   25.8770   97.8830 N.3    59  SER59      -0.1217
     75  CA        20.7010   26.6480   97.9220 C.3    59  SER59       0.1889
     76  C         19.6080   25.8820   98.6420 C.2    59  SER59       0.2288
     77  O         18.8400   26.4650   99.4030 O.2    59  SER59      -0.2866
     78  CB        20.2500   27.0160   96.5100 C.3    59  SER59       0.2089
     79  OG        21.1380   27.9620   95.9520 O.3    59  SER59      -0.2183
     80  N         18.7890   17.8820   93.0240 N.3    81  GLN81      -0.1231
     81  CA        19.1130   17.0930   91.8410 C.3    81  GLN81       0.1698
     82  C         18.7990   17.9320   90.6110 C.2    81  GLN81       0.2592
     83  O         18.2530   19.0240   90.7310 O.2    81  GLN81      -0.2718
     84  CB        18.2810   15.7990   91.7940 C.3    81  GLN81       0.0381
     85  CG        16.8020   15.9990   91.4370 C.3    81  GLN81       0.0905
     86  CD        16.1270   14.7230   90.9300 C.2    81  GLN81       0.2608
     87  OE1       15.9780   13.7470   91.6680 O.2    81  GLN81      -0.2717
     88  NE2       15.7180   14.7310   89.6600 N.am   81  GLN81      -0.0878
     89  N         19.1490   17.4150   89.4350 N.am   82  ASP82      -0.1960
     90  CA        18.9000   18.0960   88.1620 C.3    82  ASP82       0.1840
     91  C         17.5150   17.7380   87.6660 C.2    82  ASP82       0.2623
     92  O         17.2610   16.5920   87.2880 O.2    82  ASP82      -0.2715
     93  CB        19.9480   17.6630   87.1370 C.3    82  ASP82       0.1450
     94  CG        19.6850   18.1860   85.7380 C.2    82  ASP82       0.3671
     95  OD1       18.7190   18.9530   85.4890 O.co2  82  ASP82      -0.2456
     96  OD2       20.5040   17.8160   84.8710 O.co2  82  ASP82      -0.2456
     97  N         16.6220   18.7210   87.6800 N.am   83  SER83      -0.1936
     98  CA        15.2390   18.5240   87.2470 C.3    83  SER83       0.2055
     99  C         15.0090   18.8610   85.7900 C.2    83  SER83       0.2643
    100  O         13.8970   18.7110   85.2640 O.2    83  SER83      -0.2714
    101  CB        14.2830   19.3650   88.1220 C.3    83  SER83       0.2130
    102  OG        14.6090   20.7490   88.1510 O.3    83  SER83      -0.2179
    103  N         16.0600   19.3010   85.1220 N.am   84  TYR84      -0.1959
    104  CA        15.9210   19.6720   83.7260 C.3    84  TYR84       0.1771
    105  C         16.6440   18.7090   82.8070 C.2    84  TYR84       0.2620
    106  O         16.0220   18.1150   81.9340 O.2    84  TYR84      -0.2715
    107  CB        16.4630   21.0960   83.5060 C.3    84  TYR84       0.0574
    108  CG        15.7860   22.1780   84.3350 C.ar   84  TYR84      -0.0198
    109  CD1       16.3990   23.4180   84.5370 C.ar   84  TYR84      -0.0009
    110  CD2       14.5290   21.9700   84.8980 C.ar   84  TYR84      -0.0009
    111  CE1       15.7670   24.4300   85.2880 C.ar   84  TYR84       0.0417
    112  CE2       13.8890   22.9650   85.6420 C.ar   84  TYR84       0.0417
    113  CZ        14.5080   24.1860   85.8340 C.ar   84  TYR84       0.1957
    114  OH        13.8600   25.1640   86.5680 O.3    84  TYR84      -0.2866
    115  N         17.9500   18.5450   83.0160 N.am   85  GLY85      -0.1954
    116  CA        18.7170   17.6770   82.1470 C.3    85  GLY85       0.1869
    117  C         18.8190   16.2390   82.5960 C.2    85  GLY85       0.2309
    118  O         19.7040   15.5050   82.1510 O.2    85  GLY85      -0.2863
    119  N         10.6720   29.8430   88.6540 N.3   100  GLN100     -0.1231
    120  CA        10.9420   31.2760   88.5540 C.3   100  GLN100      0.1698
    121  C         12.4230   31.5360   88.3310 C.2   100  GLN100      0.2592
    122  O         13.2620   31.1640   89.1500 O.2   100  GLN100     -0.2718
    123  CB        10.4620   31.9820   89.8250 C.3   100  GLN100      0.0381
    124  CG         9.0650   31.5580   90.2110 C.3   100  GLN100      0.0905
    125  CD         8.0110   31.9610   89.1940 C.2   100  GLN100      0.2608
    126  OE1        7.1330   31.1700   88.8610 O.2   100  GLN100     -0.2717
    127  NE2        8.0770   33.2040   88.7130 N.am  100  GLN100     -0.0878
    128  N         12.7250   32.1460   87.1940 N.am  101  PHE101     -0.1962
    129  CA        14.0860   32.4720   86.8150 C.3   101  PHE101      0.1771
    130  C         15.0270   31.2780   86.7350 C.2   101  PHE101      0.2620
    131  O         16.1690   31.3500   87.1790 O.2   101  PHE101     -0.2715
    132  CB        14.6560   33.5200   87.7730 C.3   101  PHE101      0.0574
    133  CG        13.7140   34.6790   88.0310 C.ar  101  PHE101     -0.0200
    134  CD1       12.8940   34.6830   89.1600 C.ar  101  PHE101     -0.0042
    135  CD2       13.6740   35.7750   87.1690 C.ar  101  PHE101     -0.0042
    136  CE1       12.0460   35.7620   89.4310 C.ar  101  PHE101     -0.0003
    137  CE2       12.8230   36.8650   87.4280 C.ar  101  PHE101     -0.0003
    138  CZ        12.0140   36.8580   88.5650 C.ar  101  PHE101     -0.0000
    139  N         14.5800   30.1700   86.1600 N.am  102  SER102     -0.1950
    140  CA        15.4870   29.0480   86.0520 C.3   102  SER102      0.1924
    141  C         15.2130   28.0970   84.8910 C.2   102  SER102      0.2314
    142  O         16.1030   27.3780   84.4450 O.2   102  SER102     -0.2863
    143  CB        15.4880   28.2680   87.3610 C.3   102  SER102      0.2116
    144  OG        14.2480   27.6190   87.4970 O.3   102  SER102     -0.2180
    145  N         17.4670   27.5020   81.8620 N.3   105  TYR105     -0.1241
    146  CA        18.6360   26.6550   82.0090 C.3   105  TYR105      0.1605
    147  C         18.3340   25.2640   81.4440 C.2   105  TYR105      0.2264
    148  O         19.2230   24.4260   81.3220 O.2   105  TYR105     -0.2867
    149  CB        19.0560   26.5330   83.4780 C.3   105  TYR105      0.0534
    150  CG        19.5820   27.8140   84.0760 C.ar  105  TYR105     -0.0201
    151  CD1       18.9480   28.3940   85.1640 C.ar  105  TYR105     -0.0009
    152  CD2       20.6960   28.4640   83.5350 C.ar  105  TYR105     -0.0009
    153  CE1       19.3970   29.5900   85.7080 C.ar  105  TYR105      0.0417
    154  CE2       21.1540   29.6610   84.0700 C.ar  105  TYR105      0.0417
    155  CZ        20.5010   30.2150   85.1570 C.ar  105  TYR105      0.1957
    156  OH        20.9760   31.3870   85.7060 O.3   105  TYR105     -0.2866
    157  N         24.3450   37.3540   90.3890 N.3   180  VAL180     -0.1245
    158  CA        25.1450   36.5810   89.4420 C.3   180  VAL180      0.1561
    159  C         26.2450   37.3960   88.7510 C.2   180  VAL180      0.2260
    160  O         26.0960   38.5940   88.5060 O.2   180  VAL180     -0.2867
    161  CB        24.2550   35.9410   88.3690 C.3   180  VAL180      0.0252
    162  CG1       23.3620   34.8740   89.0160 C.3   180  VAL180      0.0019
    163  CG2       23.4360   37.0230   87.6600 C.3   180  VAL180      0.0019
@<TRIPOS>BOND
     1   148   147    2
     2   147   146    1
     3   145   146    1
     4   106   105    2
     5   146   149    1
     6   116   117    1
     7   116   115    1
     8   118   117    2
     9   105   115   am
    10   105   104    1
    11   149   150    1
    12   107   104    1
    13   107   108    1
    14   152   154   ar
    15   152   150   ar
    16   104   103    1
    17   154   155   ar
    18   150   151   ar
    19   108   109   ar
    20   108   110   ar
    21   142   141    2
    22   109   111   ar
    23    96    94   ar
    24   141   140    1
    25   110   112   ar
    26   103    99   am
    27   155   156    1
    28   155   153   ar
    29   151   153   ar
    30   100    99    2
    31   111   113   ar
    32    95    94   ar
    33   112   113   ar
    34    94    93    1
    35    99    98    1
    36   113   114    1
    37   140   139    1
    38   140   143    1
    39   139   130   am
    40   130   129    1
    41   130   131    2
    42   129   128    1
    43   129   132    1
    44    93    90    1
    45   135   137   ar
    46   135   133   ar
    47   128   121   am
    48    98    97    1
    49    98   101    1
    50    92    91    2
    51   143   144    1
    52   137   138   ar
    53   163   161    1
    54    91    97   am
    55    91    90    1
    56   132   133    1
    57   133   134   ar
    58   101   102    1
    59    68    66    1
    60    90    89    1
    61   121   120    1
    62   121   122    2
    63   161   162    1
    64   161   158    1
    65   160   159    2
    66   120   119    1
    67   120   123    1
    68   138   136   ar
    69   127   125   am
    70   159   158    1
    71   126   125    2
    72   134   136   ar
    73   125   124    1
    74    89    82   am
    75   158   157    1
    76    66    65    1
    77    88    86   am
    78   123   124    1
    79    67    65    1
    80    65    62    1
    81    82    83    2
    82    82    81    1
    83    18    19    1
    84    19    20    1
    85    86    85    1
    86    86    87    2
    87     1     2    1
    88    85    84    1
    89    62    61    1
    90    62    63    1
    91     2     5    1
    92     2     3    1
    93     7     6    1
    94     7     8    1
    95     6     5    1
    96    61    55   am
    97    84    81    1
    98    81    80    1
    99    21    20    2
   100    20    22   am
   101    12    11    1
   102    12    13    2
   103     4     3    2
   104    63    64    2
   105    63    69   am
   106    60    58   ar
   107    17    15   ar
   108    55    54    1
   109    55    56    2
   110    11    10    1
   111    11    14    1
   112    69    70    1
   113    22    23    1
   114    54    53    1
   115    54    57    1
   116     9     8    1
   117    59    58   ar
   118    58    57    1
   119    73    70    1
   120    70    71    1
   121    15    14    1
   122    15    16   ar
   123    52    50   ar
   124    23    24    1
   125    23    26    1
   126    28    24   am
   127    28    29    1
   128    24    25    2
   129    29    30    1
   130    26    27    1
   131    50    51   ar
   132    50    49    1
   133    71    72    2
   134    79    78    1
   135    49    46    1
   136    78    75    1
   137    30    32   am
   138    30    31    2
   139    40    39    1
   140    32    33    1
   141    46    45    1
   142    46    47    1
   143    74    75    1
   144    75    76    1
   145    45    43   am
   146    43    44    2
   147    43    42    1
   148    41    42    1
   149    39    38    1
   150    37    36    1
   151    37    38    1
   152    76    77    2
   153    33    36    1
   154    33    34    1
   155    48    47    2
   156    34    35    2
