@<TRIPOS>MOLECULE
tmp/1rinC00.pdb
 78 76 0 0 0
SMALL
GASTEIGER

@<TRIPOS>ATOM
      1  N         60.3260  -23.8320   54.9690 N.3    39  ASN39      -0.1240
      2  CA        59.5340  -24.3040   53.8370 C.3    39  ASN39       0.1653
      3  C         58.3160  -23.4710   53.4420 C.2    39  ASN39       0.2266
      4  O         57.1810  -23.9390   53.3440 O.2    39  ASN39      -0.2867
      5  CB        59.1130  -25.7400   54.1250 C.3    39  ASN39       0.1155
      6  CG        60.2700  -26.7150   54.2910 C.2    39  ASN39       0.2627
      7  OD1       60.3380  -27.4430   55.2690 O.2    39  ASN39      -0.2716
      8  ND2       61.2690  -26.8650   53.4440 N.am   39  ASN39      -0.0877
      9  N         68.6690  -18.7730   54.8100 N.3    80  ALA80      -0.1231
     10  CA        68.1580  -19.3030   53.5380 C.3    80  ALA80       0.1694
     11  C         66.7470  -18.7850   53.2310 C.2    80  ALA80       0.2592
     12  O         66.0510  -18.3230   54.1210 O.2    80  ALA80      -0.2718
     13  CB        68.0690  -20.7850   53.6040 C.3    80  ALA80       0.0304
     14  N         66.1910  -18.6900   52.0280 N.am   81  ASP81      -0.1974
     15  CA        66.8560  -18.9710   50.7680 C.3    81  ASP81       0.1709
     16  C         67.1630  -17.7440   49.9460 C.2    81  ASP81       0.2293
     17  O         68.1680  -17.6790   49.2320 O.2    81  ASP81      -0.2864
     18  CB        66.0200  -19.8680   49.9480 C.3    81  ASP81       0.1436
     19  CG        66.3920  -21.2740   50.3730 C.2    81  ASP81       0.3671
     20  OD1       67.4280  -21.7350   49.9170 O.co2  81  ASP81      -0.2456
     21  OD2       65.6850  -21.9080   51.1680 O.co2  81  ASP81      -0.2456
     22  N         59.8580  -23.9900   45.4440 N.3    97  GLY97      -0.1210
     23  CA        60.3900  -23.2670   46.5900 C.3    97  GLY97       0.1956
     24  C         61.8520  -23.5350   46.9270 C.2    97  GLY97       0.2612
     25  O         62.6710  -23.9390   46.0820 O.2    97  GLY97      -0.2717
     26  N         62.1460  -23.3410   48.2140 N.am   98  GLY98      -0.1942
     27  CA        63.5000  -23.4660   48.7290 C.3    98  GLY98       0.2014
     28  C         64.5270  -22.7410   47.8740 C.2    98  GLY98       0.2639
     29  O         64.3090  -21.5920   47.4930 O.2    98  GLY98      -0.2714
     30  N         65.5740  -23.4510   47.4490 N.am   99  GLY99      -0.1939
     31  CA        66.6470  -22.8770   46.6560 C.3    99  GLY99       0.2014
     32  C         66.2080  -22.3730   45.2780 C.2    99  GLY99       0.2638
     33  O         66.9760  -21.6660   44.6210 O.2    99  GLY99      -0.2714
     34  N         64.9740  -22.6960   44.8400 N.am  100  TYR100     -0.1973
     35  CA        64.4380  -22.2030   43.5660 C.3   100  TYR100      0.1639
     36  C         63.7230  -20.8460   43.6050 C.2   100  TYR100      0.2290
     37  O         63.2100  -20.3350   42.5950 O.2   100  TYR100     -0.2864
     38  CB        63.5080  -23.2380   43.0060 C.3   100  TYR100      0.0560
     39  CG        64.2880  -24.4220   42.5170 C.ar  100  TYR100     -0.0198
     40  CD1       64.9040  -24.3630   41.2870 C.ar  100  TYR100     -0.0009
     41  CD2       64.3680  -25.5490   43.2980 C.ar  100  TYR100     -0.0009
     42  CE1       65.6120  -25.4510   40.8250 C.ar  100  TYR100      0.0417
     43  CE2       65.0730  -26.6450   42.8380 C.ar  100  TYR100      0.0417
     44  CZ        65.6850  -26.5830   41.6040 C.ar  100  TYR100      0.1957
     45  OH        66.3660  -27.6750   41.1140 O.3   100  TYR100     -0.2866
     46  N         71.7040  -18.5640   50.5560 N.3   123  PHE123     -0.1241
     47  CA        72.0190  -19.9400   50.8980 C.3   123  PHE123      0.1605
     48  C         72.7170  -20.6460   49.7640 C.2   123  PHE123      0.2264
     49  O         72.2690  -20.5680   48.6190 O.2   123  PHE123     -0.2867
     50  CB        70.7360  -20.6870   51.2460 C.3   123  PHE123      0.0534
     51  CG        70.9600  -22.1080   51.7370 C.ar  123  PHE123     -0.0203
     52  CD1       71.2160  -22.3340   53.0800 C.ar  123  PHE123     -0.0042
     53  CD2       70.9520  -23.1510   50.8180 C.ar  123  PHE123     -0.0042
     54  CE1       71.4680  -23.6200   53.5080 C.ar  123  PHE123     -0.0003
     55  CE2       71.2090  -24.4300   51.2530 C.ar  123  PHE123     -0.0003
     56  CZ        71.4630  -24.6540   52.5950 C.ar  123  PHE123     -0.0000
     57  N         73.6630  -23.4130   47.3830 N.3   125  ASN125     -0.1240
     58  CA        73.1070  -24.6670   46.9170 C.3   125  ASN125      0.1653
     59  C         74.1230  -25.2220   45.9730 C.2   125  ASN125      0.2266
     60  O         74.2800  -24.7420   44.8520 O.2   125  ASN125     -0.2867
     61  CB        71.8050  -24.5430   46.1430 C.3   125  ASN125      0.1155
     62  CG        70.6590  -24.0800   46.9940 C.2   125  ASN125      0.2627
     63  OD1       70.4230  -22.8960   47.1190 O.2   125  ASN125     -0.2716
     64  ND2       69.9120  -24.9080   47.6720 N.am  125  ASN125     -0.0877
     65  N         74.1870  -25.7410   41.8990 N.3   128  TRP128     -0.1241
     66  CA        74.2360  -24.6110   40.9120 C.3   128  TRP128      0.1605
     67  C         74.8490  -23.2590   41.3730 C.2   128  TRP128      0.2264
     68  O         75.1980  -22.3810   40.5770 O.2   128  TRP128     -0.2867
     69  CB        72.8030  -24.2850   40.3630 C.3   128  TRP128      0.0550
     70  CG        71.8110  -23.9130   41.4580 C.ar  128  TRP128      0.0003
     71  CD1       71.8200  -22.6650   42.0100 C.ar  128  TRP128      0.0946
     72  CD2       70.8730  -24.7520   42.0120 C.ar  128  TRP128      0.0152
     73  NE1       70.8930  -22.7120   42.9190 N.ar  128  TRP128     -0.2442
     74  CE2       70.3050  -23.9090   42.9500 C.ar  128  TRP128      0.0810
     75  CE3       70.4060  -26.0380   41.8730 C.ar  128  TRP128      0.0012
     76  CZ2       69.2840  -24.3050   43.7900 C.ar  128  TRP128      0.0191
     77  CZ3       69.3840  -26.4340   42.7130 C.ar  128  TRP128      0.0001
     78  CH2       68.8180  -25.5900   43.6540 C.ar  128  TRP128      0.0015
@<TRIPOS>BOND
     1    69    66    1
     2    69    70    1
     3    68    67    2
     4    42    40   ar
     5    42    44   ar
     6    66    67    1
     7    66    65    1
     8    45    44    1
     9    40    39   ar
    10    70    71   ar
    11    70    72   ar
    12    44    43   ar
    13    75    72   ar
    14    75    77   ar
    15    71    73   ar
    16    72    74   ar
    17    39    38    1
    18    39    41   ar
    19    37    36    2
    20    77    78   ar
    21    43    41   ar
    22    73    74   ar
    23    74    76   ar
    24    38    35    1
    25    35    36    1
    26    35    34    1
    27    78    76   ar
    28    33    32    2
    29    34    32   am
    30    60    59    2
    31    32    31    1
    32    22    23    1
    33    59    58    1
    34    25    24    2
    35    61    58    1
    36    61    62    1
    37    23    24    1
    38    31    30    1
    39    58    57    1
    40    24    26   am
    41    62    63    2
    42    62    64   am
    43    30    28   am
    44    29    28    2
    45    28    27    1
    46    26    27    1
    47    49    48    2
    48    17    16    2
    49    48    47    1
    50    20    19   ar
    51    16    15    1
    52    18    19    1
    53    18    15    1
    54    19    21   ar
    55    46    47    1
    56    15    14    1
    57    53    55   ar
    58    53    51   ar
    59    47    50    1
    60    50    51    1
    61    55    56   ar
    62    51    52   ar
    63    14    11   am
    64    56    54   ar
    65    52    54   ar
    66    11    10    1
    67    11    12    2
    68     4     3    2
    69     3     2    1
    70     8     6   am
    71    10    13    1
    72    10     9    1
    73     2     5    1
    74     2     1    1
    75     5     6    1
    76     6     7    2
