@<TRIPOS>MOLECULE
tmp/1rirA03.pdb
 164 152 0 0 0
SMALL
GASTEIGER

@<TRIPOS>ATOM
      1  N         -6.1650   39.0190  -13.6300 N.3    25  THR25      -0.1218
      2  CA        -6.4260   39.5660  -14.9520 C.3    25  THR25       0.1862
      3  C         -7.8850   40.0350  -15.0680 C.2    25  THR25       0.2287
      4  O         -8.8260   39.2910  -14.7850 O.2    25  THR25      -0.2866
      5  CB        -6.1260   38.5190  -16.0450 C.3    25  THR25       0.1770
      6  OG1       -6.3730   39.0870  -17.3310 O.3    25  THR25      -0.2211
      7  CG2       -7.0060   37.3150  -15.8870 C.3    25  THR25       0.0375
      8  N        -11.0840   40.8770  -17.0770 N.3    27  LEU27      -0.1245
      9  CA       -11.6820   40.5920  -18.3630 C.3    27  LEU27       0.1561
     10  C        -12.3840   41.7820  -19.0090 C.2    27  LEU27       0.2260
     11  O        -12.8190   42.7340  -18.3390 O.2    27  LEU27      -0.2867
     12  CB       -12.6650   39.4340  -18.2500 C.3    27  LEU27       0.0270
     13  CG       -12.1010   38.0470  -17.9610 C.3    27  LEU27       0.0019
     14  CD1      -13.0720   37.0130  -18.5340 C.3    27  LEU27       0.0001
     15  CD2      -10.7320   37.8800  -18.6050 C.3    27  LEU27       0.0001
     16  N        -15.0720   42.2620  -19.7190 N.3    29  ASN29      -0.1240
     17  CA       -16.4900   42.2850  -19.3850 C.3    29  ASN29       0.1653
     18  C        -16.6820   42.6590  -17.9260 C.2    29  ASN29       0.2266
     19  O        -17.6820   42.2920  -17.3030 O.2    29  ASN29      -0.2867
     20  CB       -17.1360   40.9200  -19.6730 C.3    29  ASN29       0.1155
     21  CG       -16.7000   39.8420  -18.6910 C.2    29  ASN29       0.2627
     22  OD1      -15.5150   39.6860  -18.4010 O.2    29  ASN29      -0.2716
     23  ND2      -17.6610   39.0820  -18.1830 N.am   29  ASN29      -0.0877
     24  N        -15.1500   41.6050  -15.3220 N.3    31  ASN31      -0.1240
     25  CA       -15.0360   40.4910  -14.4070 C.3    31  ASN31       0.1653
     26  C        -13.5770   40.2690  -14.0670 C.2    31  ASN31       0.2266
     27  O        -12.6870   40.4500  -14.9000 O.2    31  ASN31      -0.2867
     28  CB       -15.6480   39.2240  -15.0180 C.3    31  ASN31       0.1155
     29  CG       -17.1640   39.1930  -14.9080 C.2    31  ASN31       0.2627
     30  OD1      -17.8180   38.3700  -15.5380 O.2    31  ASN31      -0.2716
     31  ND2      -17.7250   40.0830  -14.0900 N.am   31  ASN31      -0.0877
     32  N        -10.5650   37.8140  -13.0480 N.3    33  GLN33      -0.1245
     33  CA       -10.1110   36.4340  -13.1070 C.3    33  GLN33       0.1566
     34  C         -8.8950   36.3670  -12.1930 C.2    33  GLN33       0.2260
     35  O         -7.8800   37.0200  -12.4310 O.2    33  GLN33      -0.2867
     36  CB        -9.7280   36.0570  -14.5280 C.3    33  GLN33       0.0367
     37  CG        -9.1310   34.6920  -14.6290 C.3    33  GLN33       0.0905
     38  CD        -9.1610   34.1790  -16.0340 C.2    33  GLN33       0.2608
     39  OE1       -8.6440   33.1070  -16.3140 O.2    33  GLN33      -0.2717
     40  NE2       -9.7730   34.9410  -16.9340 N.am   33  GLN33      -0.0878
     41  N         -6.7590   33.5820  -11.2320 N.3    35  THR35      -0.1203
     42  CA        -5.5620   32.8040  -11.5760 C.3    35  THR35       0.1994
     43  C         -5.2430   32.6240  -13.0470 C.2    35  THR35       0.2618
     44  O         -6.1350   32.6880  -13.8990 O.2    35  THR35      -0.2717
     45  CB        -5.6070   31.3880  -10.9830 C.3    35  THR35       0.1784
     46  OG1       -6.8250   30.7300  -11.3650 O.3    35  THR35      -0.2211
     47  CG2       -5.5130   31.4550   -9.4860 C.3    35  THR35       0.0376
     48  N         -3.9630   32.3870  -13.3380 N.am   36  ASN36      -0.1960
     49  CA        -3.5310   32.1650  -14.7070 C.3    36  ASN36       0.1819
     50  C         -3.6000   30.6640  -14.9780 C.2    36  ASN36       0.2621
     51  O         -2.9780   29.8590  -14.2700 O.2    36  ASN36      -0.2715
     52  CB        -2.0950   32.6590  -14.9210 C.3    36  ASN36       0.1195
     53  CG        -1.7200   32.7560  -16.4070 C.2    36  ASN36       0.2630
     54  OD1       -2.0400   31.8700  -17.2030 O.2    36  ASN36      -0.2716
     55  ND2       -1.0360   33.8340  -16.7780 N.am   36  ASN36      -0.0877
     56  N         -4.3460   30.2860  -16.0110 N.am   37  LEU37      -0.1963
     57  CA        -4.5050   28.8870  -16.3670 C.3    37  LEU37       0.1728
     58  C         -3.2700   28.2120  -16.9710 C.2    37  LEU37       0.2616
     59  O         -3.1290   26.9970  -16.8900 O.2    37  LEU37      -0.2715
     60  CB        -5.7010   28.7560  -17.3070 C.3    37  LEU37       0.0311
     61  CG        -7.0250   28.3660  -16.6460 C.3    37  LEU37       0.0022
     62  CD1       -7.0460   28.8490  -15.2250 C.3    37  LEU37       0.0001
     63  CD2       -8.1820   28.9360  -17.4270 C.3    37  LEU37       0.0001
     64  N         -2.3690   28.9910  -17.5530 N.am   38  ASN38      -0.1972
     65  CA        -1.1760   28.4240  -18.1660 C.3    38  ASN38       0.1688
     66  C          0.0570   28.4110  -17.2600 C.2    38  ASN38       0.2292
     67  O          1.1870   28.3010  -17.7480 O.2    38  ASN38      -0.2864
     68  CB        -0.8540   29.1800  -19.4520 C.3    38  ASN38       0.1181
     69  CG        -1.9240   29.0290  -20.4910 C.2    38  ASN38       0.2629
     70  OD1       -2.2870   27.9130  -20.8580 O.2    38  ASN38      -0.2716
     71  ND2       -2.4370   30.1490  -20.9830 N.am   38  ASN38      -0.0877
     72  N        -17.7470   32.8710   -9.5930 N.3    72  GLU72      -0.1245
     73  CA       -18.0200   31.7520  -10.4780 C.3    72  GLU72       0.1567
     74  C        -16.7310   30.9920  -10.7030 C.2    72  GLU72       0.2260
     75  O        -15.6880   31.6070  -10.8930 O.2    72  GLU72      -0.2867
     76  CB       -18.5360   32.2810  -11.8080 C.3    72  GLU72       0.0388
     77  CG       -18.9660   31.2020  -12.7660 C.3    72  GLU72       0.1160
     78  CD       -19.3610   31.7560  -14.1200 C.2    72  GLU72       0.3649
     79  OE1      -19.8580   32.9000  -14.1710 O.co2  72  GLU72      -0.2457
     80  OE2      -19.1920   31.0550  -15.1420 O.co2  72  GLU72      -0.2457
     81  N        -15.5010   28.0010  -13.1930 N.3    74  LYS74      -0.1231
     82  CA       -15.7490   27.0620  -14.2900 C.3    74  LYS74       0.1693
     83  C        -14.5700   26.1040  -14.4650 C.2    74  LYS74       0.2592
     84  O        -13.4110   26.5220  -14.4060 O.2    74  LYS74      -0.2718
     85  CB       -16.0020   27.8400  -15.5910 C.3    74  LYS74       0.0285
     86  CG       -16.6530   27.0200  -16.7000 C.3    74  LYS74       0.0035
     87  CD       -17.1690   27.8960  -17.8450 C.3    74  LYS74       0.0206
     88  CE       -17.8450   27.0510  -18.9250 C.3    74  LYS74       0.1093
     89  NZ       -18.4530   27.8860  -19.9920 N.3    74  LYS74      -0.1314
     90  N        -14.8610   24.8220  -14.6750 N.am   75  ASP75      -0.1960
     91  CA       -13.8150   23.8130  -14.8480 C.3    75  ASP75       0.1840
     92  C        -13.1260   23.9090  -16.2000 C.2    75  ASP75       0.2622
     93  O        -13.6040   24.6010  -17.0840 O.2    75  ASP75      -0.2715
     94  CB       -14.4000   22.4080  -14.7140 C.3    75  ASP75       0.1450
     95  CG       -15.0660   22.1750  -13.3790 C.2    75  ASP75       0.3671
     96  OD1      -14.6050   22.7400  -12.3640 O.co2  75  ASP75      -0.2456
     97  OD2      -16.0460   21.4040  -13.3460 O.co2  75  ASP75      -0.2456
     98  N        -12.0000   23.2200  -16.3580 N.am   76  ILE76      -0.1963
     99  CA       -11.3090   23.2180  -17.6410 C.3    76  ILE76       0.1727
    100  C        -10.7980   21.8150  -17.9850 C.2    76  ILE76       0.2616
    101  O        -10.0440   21.2050  -17.2340 O.2    76  ILE76      -0.2715
    102  CB       -10.1440   24.2510  -17.6820 C.3    76  ILE76       0.0290
    103  CG1       -9.0890   23.9130  -16.6430 C.3    76  ILE76       0.0022
    104  CG2      -10.6690   25.6470  -17.4170 C.3    76  ILE76       0.0023
    105  CD1       -7.8560   24.7850  -16.7600 C.3    76  ILE76       0.0001
    106  N        -11.2620   21.3150  -19.1270 N.am   77  LYS77      -0.1977
    107  CA       -10.9170   19.9960  -19.6550 C.3    77  LYS77       0.1596
    108  C         -9.5540   19.4640  -19.1870 C.2    77  LYS77       0.2287
    109  O         -8.5380   20.1530  -19.2890 O.2    77  LYS77      -0.2864
    110  CB       -10.9690   20.0570  -21.1930 C.3    77  LYS77       0.0298
    111  CG       -10.8080   18.7330  -21.9380 C.3    77  LYS77       0.0038
    112  CD       -11.0590   18.9300  -23.4340 C.3    77  LYS77       0.0206
    113  CE       -10.9220   17.6340  -24.2210 C.3    77  LYS77       0.1093
    114  NZ        -9.5250   17.1220  -24.2360 N.3    77  LYS77      -0.1314
    115  N         -8.3800   18.7310  -16.0440 N.3    79  TYR79      -0.1241
    116  CA        -7.7870   19.4400  -14.9100 C.3    79  TYR79       0.1605
    117  C         -8.5810   19.2850  -13.6230 C.2    79  TYR79       0.2264
    118  O         -9.8030   19.2510  -13.6310 O.2    79  TYR79      -0.2867
    119  CB        -7.6370   20.9290  -15.2390 C.3    79  TYR79       0.0534
    120  CG        -6.3000   21.2940  -15.8530 C.ar   79  TYR79      -0.0201
    121  CD1       -5.1280   21.2470  -15.0960 C.ar   79  TYR79      -0.0009
    122  CD2       -6.2010   21.6700  -17.1910 C.ar   79  TYR79      -0.0009
    123  CE1       -3.8890   21.5660  -15.6550 C.ar   79  TYR79       0.0417
    124  CE2       -4.9680   21.9860  -17.7590 C.ar   79  TYR79       0.0417
    125  CZ        -3.8190   21.9320  -16.9870 C.ar   79  TYR79       0.1957
    126  OH        -2.6080   22.2400  -17.5590 O.3    79  TYR79      -0.2866
    127  N         -6.2750   23.2490  -11.5460 N.3   215  ARG215     -0.1245
    128  CA        -6.5330   24.5560  -12.1400 C.3   215  ARG215      0.1563
    129  C         -7.9970   24.7150  -12.5370 C.2   215  ARG215      0.2260
    130  O         -8.7090   23.7330  -12.7800 O.2   215  ARG215     -0.2867
    131  CB        -5.6540   24.7710  -13.3750 C.3   215  ARG215      0.0307
    132  CG        -4.1800   24.6410  -13.1150 C.3   215  ARG215      0.0489
    133  CD        -3.4020   24.6800  -14.4140 C.3   215  ARG215      0.2205
    134  NE        -2.0290   24.2400  -14.2140 N.pl3 215  ARG215     -0.0865
    135  CZ        -1.0820   24.2720  -15.1480 C.cat 215  ARG215      0.5346
    136  NH1       -1.3740   24.7240  -16.3550 N.pl3 215  ARG215      0.1354
    137  NH2        0.1590   23.8660  -14.8680 N.pl3 215  ARG215      0.1354
    138  N        -10.9900   28.3580  -13.4970 N.3   217  ILE217     -0.1245
    139  CA       -11.1650   29.7890  -13.5600 C.3   217  ILE217      0.1561
    140  C        -11.8060   30.2400  -12.2820 C.2   217  ILE217      0.2260
    141  O        -12.6740   29.5530  -11.7550 O.2   217  ILE217     -0.2867
    142  CB       -12.0400   30.1760  -14.7270 C.3   217  ILE217      0.0252
    143  CG1      -11.3280   29.7880  -16.0160 C.3   217  ILE217      0.0019
    144  CG2      -12.2990   31.6600  -14.7070 C.3   217  ILE217      0.0019
    145  CD1      -12.0890   30.0990  -17.2680 C.3   217  ILE217      0.0001
    146  N        -13.6740   33.5400  -10.9590 N.3   219  LEU219     -0.1245
    147  CA       -14.2490   34.8460  -11.2810 C.3   219  LEU219      0.1561
    148  C        -14.9870   35.5860  -10.1760 C.2   219  LEU219      0.2260
    149  O        -15.9350   35.0650   -9.5960 O.2   219  LEU219     -0.2867
    150  CB       -15.1960   34.7180  -12.4870 C.3   219  LEU219      0.0270
    151  CG       -14.6240   34.5680  -13.9000 C.3   219  LEU219      0.0019
    152  CD1      -15.6090   35.1480  -14.8750 C.3   219  LEU219      0.0001
    153  CD2      -13.3140   35.3120  -14.0540 C.3   219  LEU219      0.0001
    154  N        -17.3220   38.3770   -9.7810 N.3   221  ARG221     -0.1245
    155  CA       -18.2370   39.1650  -10.5790 C.3   221  ARG221      0.1563
    156  C        -18.6470   40.4680   -9.9310 C.2   221  ARG221      0.2260
    157  O        -18.7960   41.4720  -10.6150 O.2   221  ARG221     -0.2867
    158  CB       -19.4790   38.3500  -10.8800 C.3   221  ARG221      0.0307
    159  CG       -19.1520   36.9380  -11.2980 C.3   221  ARG221      0.0489
    160  CD       -20.3940   36.0740  -11.3310 C.3   221  ARG221      0.2205
    161  NE       -21.2790   36.4750  -12.4130 N.pl3 221  ARG221     -0.0865
    162  CZ       -20.9320   36.4270  -13.6920 C.cat 221  ARG221      0.5346
    163  NH1      -19.7220   35.9980  -14.0330 N.pl3 221  ARG221      0.1354
    164  NH2      -21.8020   36.7950  -14.6260 N.pl3 221  ARG221      0.1354
@<TRIPOS>BOND
     1   114   113    1
     2   113   112    1
     3   112   111    1
     4   111   110    1
     5   110   107    1
     6    71    69   am
     7    70    69    2
     8    69    68    1
     9    89    88    1
    10    16    17    1
    11    20    17    1
    12    20    21    1
    13   107   108    1
    14   107   106    1
    15    68    65    1
    16    17    18    1
    17   109   108    2
    18   106   100   am
    19    10     9    1
    20    10    11    2
    21    88    87    1
    22    21    22    2
    23    21    23   am
    24    15    13    1
    25    14    13    1
    26     9    12    1
    27     9     8    1
    28    12    13    1
    29    65    64    1
    30    65    66    1
    31   100    99    1
    32   100   101    2
    33    18    19    2
    34    87    86    1
    35   124   122   ar
    36   124   125   ar
    37    67    66    2
    38   102    99    1
    39   102   104    1
    40   102   103    1
    41    99    98    1
    42   126   125    1
    43    64    58   am
    44    63    61    1
    45     6     5    1
    46    60    61    1
    47    60    57    1
    48   145   143    1
    49    54    53    2
    50   122   120   ar
    51    93    92    2
    52   125   123   ar
    53    58    59    2
    54    58    57    1
    55    40    38   am
    56    55    53   am
    57   105   103    1
    58    86    85    1
    59    61    62    1
    60    53    52    1
    61    57    56    1
    62    98    92   am
    63   136   135    1
    64    39    38    2
    65    92    91    1
    66     5     7    1
    67     5     2    1
    68   115   116    1
    69    38    37    1
    70   143   142    1
    71    56    50   am
    72   120   119    1
    73   120   121   ar
    74   123   121   ar
    75    85    82    1
    76    30    29    2
    77    24    25    1
    78   119   116    1
    79   135   137    1
    80   135   134    2
    81    80    78   ar
    82     3     2    1
    83     3     4    2
    84    28    29    1
    85    28    25    1
    86    50    49    1
    87    50    51    2
    88     2     1    1
    89    52    49    1
    90   116   117    1
    91    29    31   am
    92    27    26    2
    93   152   151    1
    94    91    94    1
    95    91    90    1
    96   142   144    1
    97   142   139    1
    98    94    95    1
    99    49    48    1
   100    90    83   am
   101    37    36    1
   102   164   162    1
   103    36    33    1
   104    83    84    2
   105    83    82    1
   106   133   134    1
   107   133   132    1
   108    25    26    1
   109    82    81    1
   110    79    78   ar
   111    78    77    1
   112   153   151    1
   113   163   162    1
   114   151   150    1
   115    44    43    2
   116   162   161    2
   117   118   117    2
   118   139   138    1
   119   139   140    1
   120    95    97   ar
   121    95    96   ar
   122   131   132    1
   123   131   128    1
   124    48    43   am
   125    33    32    1
   126    33    34    1
   127    43    42    1
   128   130   129    2
   129    77    76    1
   130   129   128    1
   131   150   147    1
   132    35    34    2
   133   161   160    1
   134   140   141    2
   135   128   127    1
   136    76    73    1
   137    42    41    1
   138    42    45    1
   139    46    45    1
   140   160   159    1
   141   159   158    1
   142   147   146    1
   143   147   148    1
   144    45    47    1
   145    75    74    2
   146   158   155    1
   147    74    73    1
   148   157   156    2
   149   155   156    1
   150   155   154    1
   151    73    72    1
   152   148   149    2
