@<TRIPOS>MOLECULE
tmp/1riwC00.pdb
 142 142 0 0 0
SMALL
GASTEIGER

@<TRIPOS>ATOM
      1  N         20.4850  -15.5090   32.3800 N.3    25  ILE25      -0.1245
      2  CA        21.4100  -14.5920   31.7320 C.3    25  ILE25       0.1561
      3  C         21.8650  -13.5000   32.6950 C.2    25  ILE25       0.2260
      4  O         21.0680  -12.9840   33.4750 O.2    25  ILE25      -0.2867
      5  CB        20.7530  -13.9220   30.4980 C.3    25  ILE25       0.0252
      6  CG1       20.2410  -14.9950   29.5330 C.3    25  ILE25       0.0019
      7  CG2       21.7610  -13.0290   29.7920 C.3    25  ILE25       0.0019
      8  CD1       21.3190  -15.9630   29.0670 C.3    25  ILE25       0.0001
      9  N          4.3870   -8.3660   25.2570 N.3    45  ASP45      -0.1225
     10  CA         5.8350   -8.4900   25.2270 C.3    45  ASP45       0.1805
     11  C          6.3130   -8.2550   23.8050 C.2    45  ASP45       0.2598
     12  O          5.5400   -8.4040   22.8570 O.2    45  ASP45      -0.2718
     13  CB         6.2530   -9.8990   25.6740 C.3    45  ASP45       0.1424
     14  CG         7.7480  -10.0290   25.8980 C.2    45  ASP45       0.3668
     15  OD1        8.2220  -11.1760   26.0780 O.co2  45  ASP45      -0.2456
     16  OD2        8.4470   -8.9880   25.9080 O.co2  45  ASP45      -0.2456
     17  N          7.5720   -7.8510   23.6710 N.am   46  ALA46      -0.1966
     18  CA         8.1770   -7.6590   22.3640 C.3    46  ALA46       0.1728
     19  C          8.5480   -9.0850   21.9680 C.2    46  ALA46       0.2616
     20  O          8.3840  -10.0010   22.7690 O.2    46  ALA46      -0.2715
     21  CB         9.4300   -6.7950   22.4740 C.3    46  ALA46       0.0334
     22  N          9.0590   -9.2860   20.7610 N.am   47  CYS47      -0.1954
     23  CA         9.4040  -10.6400   20.3300 C.3    47  CYS47       0.1843
     24  C         10.3430  -10.5770   19.1260 C.2    47  CYS47       0.2625
     25  O         10.7880   -9.4990   18.7360 O.2    47  CYS47      -0.2714
     26  CB         8.1070  -11.3920   19.9700 C.3    47  CYS47       0.0997
     27  SG         8.2190  -13.2120   19.8210 S.3    47  CYS47      -0.0797
     28  N         10.6540  -11.7380   18.5530 N.am   48  GLU48      -0.1977
     29  CA        11.5250  -11.8320   17.3780 C.3    48  GLU48       0.1602
     30  C         11.0220  -10.8540   16.3150 C.2    48  GLU48       0.2287
     31  O          9.8180  -10.7830   16.0630 O.2    48  GLU48      -0.2864
     32  CB        11.4540  -13.2550   16.8230 C.3    48  GLU48       0.0415
     33  CG        12.3540  -13.5590   15.6330 C.3    48  GLU48       0.1163
     34  CD        13.7540  -13.9590   16.0520 C.2    48  GLU48       0.3649
     35  OE1       13.8940  -14.6050   17.1190 O.co2  48  GLU48      -0.2457
     36  OE2       14.7080  -13.6430   15.3050 O.co2  48  GLU48      -0.2457
     37  N         13.2440   -6.6390   17.5280 N.3    51  SER51      -0.1217
     38  CA        14.6060   -6.2770   17.9090 C.3    51  SER51       0.1889
     39  C         15.0270   -4.9310   17.3310 C.2    51  SER51       0.2288
     40  O         14.7400   -4.6230   16.1760 O.2    51  SER51      -0.2866
     41  CB        15.5950   -7.3540   17.4400 C.3    51  SER51       0.2089
     42  OG        14.9350   -8.5790   17.1330 O.3    51  SER51      -0.2183
     43  N         14.6040   -2.6800   22.1300 N.3    71  VAL71      -0.1231
     44  CA        14.2710   -4.0970   22.2860 C.3    71  VAL71       0.1692
     45  C         15.5650   -4.8690   22.0690 C.2    71  VAL71       0.2593
     46  O         16.1710   -4.7660   21.0040 O.2    71  VAL71      -0.2718
     47  CB        13.2210   -4.5550   21.2500 C.3    71  VAL71       0.0266
     48  CG1       12.9210   -6.0470   21.4320 C.3    71  VAL71       0.0020
     49  CG2       11.9410   -3.7440   21.4110 C.3    71  VAL71       0.0020
     50  N         15.9850   -5.6450   23.0690 N.am   72  SER72      -0.1938
     51  CA        17.2470   -6.3880   22.9750 C.3    72  SER72       0.2055
     52  C         17.1310   -7.9100   23.0350 C.2    72  SER72       0.2643
     53  O         17.5650   -8.6040   22.1120 O.2    72  SER72      -0.2714
     54  CB        18.2030   -5.9090   24.0760 C.3    72  SER72       0.2130
     55  OG        19.4630   -6.5550   23.9890 O.3    72  SER72      -0.2179
     56  N         16.5610   -8.4390   24.1160 N.am   73  TRP73      -0.1959
     57  CA        16.4340   -9.8870   24.2390 C.3    73  TRP73       0.1771
     58  C         15.3620  -10.3550   25.2140 C.2    73  TRP73       0.2620
     59  O         14.7430   -9.5620   25.9180 O.2    73  TRP73      -0.2715
     60  CB        17.7750  -10.5070   24.6470 C.3    73  TRP73       0.0590
     61  CG        18.3120  -10.0170   25.9620 C.ar   73  TRP73       0.0006
     62  CD1       19.0780   -8.9090   26.1760 C.ar   73  TRP73       0.0946
     63  CD2       18.1620  -10.6550   27.2410 C.ar   73  TRP73       0.0152
     64  NE1       19.4250   -8.8190   27.5060 N.ar   73  TRP73      -0.2442
     65  CE2       18.8740   -9.8770   28.1820 C.ar   73  TRP73       0.0810
     66  CE3       17.4960  -11.8070   27.6800 C.ar   73  TRP73       0.0012
     67  CZ2       18.9450  -10.2200   29.5430 C.ar   73  TRP73       0.0191
     68  CZ3       17.5660  -12.1520   29.0410 C.ar   73  TRP73       0.0001
     69  CH2       18.2850  -11.3570   29.9510 C.ar   73  TRP73       0.0015
     70  N         15.1550  -11.6660   25.2330 N.am   74  GLY74      -0.1940
     71  CA        14.1750  -12.2560   26.1160 C.3    74  GLY74       0.2014
     72  C         14.1060  -13.7540   25.9090 C.2    74  GLY74       0.2639
     73  O         14.4430  -14.2570   24.8440 O.2    74  GLY74      -0.2714
     74  N         13.6740  -14.4670   26.9400 N.am   75  GLU75      -0.1963
     75  CA        13.5480  -15.9190   26.8830 C.3    75  GLU75       0.1733
     76  C         12.1120  -16.2330   26.4690 C.2    75  GLU75       0.2617
     77  O         11.1920  -16.1750   27.2840 O.2    75  GLU75      -0.2715
     78  CB        13.8720  -16.5050   28.2610 C.3    75  GLU75       0.0429
     79  CG        15.3370  -16.3070   28.6770 C.3    75  GLU75       0.1163
     80  CD        15.5720  -16.5530   30.1630 C.2    75  GLU75       0.3649
     81  OE1       16.7220  -16.8270   30.5590 O.co2  75  GLU75      -0.2457
     82  OE2       14.6060  -16.4650   30.9440 O.co2  75  GLU75      -0.2457
     83  N         11.9300  -16.5660   25.1950 N.am   76  GLY76      -0.1940
     84  CA        10.5950  -16.8280   24.6940 C.3    76  GLY76       0.2014
     85  C          9.9390  -15.4740   24.4780 C.2    76  GLY76       0.2639
     86  O         10.6260  -14.4520   24.4260 O.2    76  GLY76      -0.2714
     87  N          8.6190  -15.4540   24.3520 N.am   77  CYS77      -0.1967
     88  CA         7.8920  -14.2020   24.1630 C.3    77  CYS77       0.1712
     89  C          6.5870  -14.2620   24.9620 C.2    77  CYS77       0.2296
     90  O          5.7970  -15.1830   24.7860 O.2    77  CYS77      -0.2864
     91  CB         7.5800  -13.9900   22.6790 C.3    77  CYS77       0.0983
     92  SG         9.0310  -13.7810   21.5930 S.3    77  CYS77      -0.0798
     93  N          5.9640  -15.0460   28.0600 N.3    79  ARG79      -0.1245
     94  CA         5.7970  -16.2090   28.9190 C.3    79  ARG79       0.1563
     95  C          5.6090  -15.7360   30.3520 C.2    79  ARG79       0.2260
     96  O          6.2520  -14.7790   30.7790 O.2    79  ARG79      -0.2867
     97  CB         7.0170  -17.1250   28.8390 C.3    79  ARG79       0.0307
     98  CG         7.2380  -17.7910   27.4880 C.3    79  ARG79       0.0489
     99  CD         8.1870  -18.9790   27.6600 C.3    79  ARG79       0.2205
    100  NE         8.2420  -19.8210   26.4700 N.pl3  79  ARG79      -0.0865
    101  CZ         8.8730  -20.9930   26.3970 C.cat  79  ARG79       0.5346
    102  NH1        8.8750  -21.6630   25.2510 N.pl3  79  ARG79       0.1354
    103  NH2        9.5180  -21.4900   27.4550 N.pl3  79  ARG79       0.1354
    104  N         10.3760  -11.7930   31.3290 N.3    83  TYR83      -0.1227
    105  CA        10.2250  -10.3990   30.9430 C.3    83  TYR83       0.1736
    106  C         11.0590  -10.0300   29.7270 C.2    83  TYR83       0.2596
    107  O         11.9870  -10.7470   29.3470 O.2    83  TYR83      -0.2718
    108  CB        10.5980   -9.4810   32.1090 C.3    83  TYR83       0.0548
    109  CG         9.8090   -9.7690   33.3590 C.ar   83  TYR83      -0.0200
    110  CD1       10.1630  -10.8220   34.2010 C.ar   83  TYR83      -0.0009
    111  CD2        8.6680   -9.0310   33.6660 C.ar   83  TYR83      -0.0009
    112  CE1        9.3950  -11.1370   35.3150 C.ar   83  TYR83       0.0417
    113  CE2        7.8920   -9.3360   34.7750 C.ar   83  TYR83       0.0417
    114  CZ         8.2590  -10.3900   35.5940 C.ar   83  TYR83       0.1957
    115  OH         7.4860  -10.7070   36.6820 O.3    83  TYR83      -0.2866
    116  N         10.7110   -8.9050   29.1150 N.am   84  GLY84      -0.1942
    117  CA        11.4510   -8.4450   27.9610 C.3    84  GLY84       0.2014
    118  C         12.5930   -7.5990   28.4790 C.2    84  GLY84       0.2639
    119  O         12.4070   -6.8220   29.4180 O.2    84  GLY84      -0.2714
    120  N         13.7760   -7.7650   27.8950 N.am   85  PHE85      -0.1959
    121  CA        14.9350   -6.9810   28.3090 C.3    85  PHE85       0.1771
    122  C         15.2810   -5.9530   27.2460 C.2    85  PHE85       0.2619
    123  O         15.2530   -6.2350   26.0450 O.2    85  PHE85      -0.2715
    124  CB        16.1260   -7.8930   28.6100 C.3    85  PHE85       0.0574
    125  CG        16.0160   -8.5940   29.9360 C.ar   85  PHE85      -0.0200
    126  CD1       15.2540   -9.7480   30.0690 C.ar   85  PHE85      -0.0042
    127  CD2       16.6480   -8.0780   31.0590 C.ar   85  PHE85      -0.0042
    128  CE1       15.1150  -10.3780   31.3120 C.ar   85  PHE85      -0.0003
    129  CE2       16.5160   -8.6980   32.3030 C.ar   85  PHE85      -0.0003
    130  CZ        15.7480   -9.8540   32.4250 C.ar   85  PHE85      -0.0000
    131  N         15.5980   -4.7480   27.7020 N.am   86  TYR86      -0.1974
    132  CA        15.8910   -3.6450   26.8000 C.3    86  TYR86       0.1639
    133  C         17.2020   -2.9580   27.1060 C.2    86  TYR86       0.2290
    134  O         17.5880   -2.8560   28.2650 O.2    86  TYR86      -0.2864
    135  CB        14.7740   -2.5960   26.8920 C.3    86  TYR86       0.0560
    136  CG        13.4050   -3.1540   26.6460 C.ar   86  TYR86      -0.0198
    137  CD1       12.7720   -3.9630   27.5920 C.ar   86  TYR86      -0.0009
    138  CD2       12.7600   -2.9290   25.4330 C.ar   86  TYR86      -0.0009
    139  CE1       11.5310   -4.5380   27.3200 C.ar   86  TYR86       0.0417
    140  CE2       11.5330   -3.4910   25.1590 C.ar   86  TYR86       0.0417
    141  CZ        10.9210   -4.2960   26.0970 C.ar   86  TYR86       0.1957
    142  OH         9.7030   -4.8660   25.7840 O.3    86  TYR86      -0.2866
@<TRIPOS>BOND
     1    36    34   ar
     2    33    34    1
     3    33    32    1
     4    34    35   ar
     5    31    30    2
     6    40    39    2
     7    30    29    1
     8    32    29    1
     9    42    41    1
    10    39    38    1
    11    29    28    1
    12    41    38    1
    13    37    38    1
    14    28    24   am
    15    25    24    2
    16    24    23    1
    17    27    26    1
    18    27    92    1
    19    26    23    1
    20    23    22    1
    21    22    19   am
    22    46    45    2
    23    47    49    1
    24    47    48    1
    25    47    44    1
    26    92    91    1
    27    19    18    1
    28    19    20    2
    29    45    44    1
    30    45    50   am
    31    53    52    2
    32    43    44    1
    33    18    21    1
    34    18    17    1
    35    91    88    1
    36    12    11    2
    37    51    52    1
    38    51    50    1
    39    51    54    1
    40    52    56   am
    41    17    11   am
    42    11    10    1
    43    55    54    1
    44    56    57    1
    45    88    87    1
    46    88    89    1
    47    57    60    1
    48    57    58    1
    49    87    85   am
    50    86    85    2
    51    85    84    1
    52    60    61    1
    53    84    83    1
    54    90    89    2
    55    73    72    2
    56   140   138   ar
    57   140   141   ar
    58    83    76   am
    59    58    70   am
    60    58    59    2
    61    10     9    1
    62    10    13    1
    63    70    71    1
    64   102   101    1
    65   138   136   ar
    66    13    14    1
    67   142   141    1
    68    14    16   ar
    69    14    15   ar
    70    72    71    1
    71    72    74   am
    72    61    62   ar
    73    61    63   ar
    74   123   122    2
    75   141   139   ar
    76    62    64   ar
    77   101   100    2
    78   101   103    1
    79    76    75    1
    80    76    77    2
    81   100    99    1
    82   136   135    1
    83   136   137   ar
    84   132   135    1
    85   132   133    1
    86   132   131    1
    87    75    74    1
    88    75    78    1
    89   133   134    2
    90    63    66   ar
    91    63    65   ar
    92   122   131   am
    93   122   121    1
    94   139   137   ar
    95    98    99    1
    96    98    97    1
    97    64    65   ar
    98    66    68   ar
    99   120   121    1
   100   120   118   am
   101   117   118    1
   102   117   116    1
   103    93    94    1
   104    65    67   ar
   105    78    79    1
   106   121   124    1
   107   118   119    2
   108   124   125    1
   109    79    80    1
   110    97    94    1
   111    94    95    1
   112    68    69   ar
   113     8     6    1
   114   116   106   am
   115   107   106    2
   116     6     5    1
   117    67    69   ar
   118   106   105    1
   119     7     5    1
   120   125   126   ar
   121   125   127   ar
   122   126   128   ar
   123    80    81   ar
   124    80    82   ar
   125    95    96    2
   126     5     2    1
   127   105   104    1
   128   105   108    1
   129   127   129   ar
   130   128   130   ar
   131     2     1    1
   132     2     3    1
   133   108   109    1
   134   129   130   ar
   135     3     4    2
   136   109   111   ar
   137   109   110   ar
   138   111   113   ar
   139   110   112   ar
   140   113   114   ar
   141   112   114   ar
   142   114   115    1
