@<TRIPOS>MOLECULE
tmp/1rj5B00.pdb
 99 96 0 0 0
SMALL
GASTEIGER

@<TRIPOS>ATOM
      1  N         21.4980   30.7940  -38.7820 N.3    40  LEU40      -0.1245
      2  CA        20.9960   29.5680  -38.1760 C.3    40  LEU40       0.1561
      3  C         20.6970   28.5630  -39.2810 C.2    40  LEU40       0.2260
      4  O         19.9500   28.8690  -40.2210 O.2    40  LEU40      -0.2867
      5  CB        19.7120   29.8260  -37.3850 C.3    40  LEU40       0.0270
      6  CG        19.8100   30.2990  -35.9370 C.3    40  LEU40       0.0019
      7  CD1       18.4030   30.5400  -35.4360 C.3    40  LEU40       0.0001
      8  CD2       20.5180   29.2680  -35.0580 C.3    40  LEU40       0.0001
      9  N         24.5850   22.4210  -33.0990 N.3    79  PRO79      -0.2102
     10  CA        26.0290   22.4620  -32.8130 C.3    79  PRO79       0.1504
     11  C         26.7160   21.0970  -32.7140 C.2    79  PRO79       0.2575
     12  O         27.8840   20.9590  -33.0710 O.2    79  PRO79      -0.2718
     13  CB        26.0960   23.2430  -31.5020 C.3    79  PRO79       0.0282
     14  CG        24.9140   24.1680  -31.6040 C.3    79  PRO79       0.0208
     15  CD        23.8430   23.2320  -32.1140 C.3    79  PRO79       0.0893
     16  N         25.9890   20.1030  -32.2130 N.am   80  ARG80      -0.1980
     17  CA        26.5060   18.7440  -32.0740 C.3    80  ARG80       0.1597
     18  C         25.5270   17.8350  -32.7970 C.2    80  ARG80       0.2287
     19  O         24.4700   18.2910  -33.2410 O.2    80  ARG80      -0.2864
     20  CB        26.5580   18.3320  -30.6050 C.3    80  ARG80       0.0334
     21  CG        27.2360   19.3220  -29.6960 C.3    80  ARG80       0.0492
     22  CD        26.9480   18.9850  -28.2510 C.3    80  ARG80       0.2205
     23  NE        27.6740   19.8450  -27.3200 N.pl3  80  ARG80      -0.0865
     24  CZ        27.7290   19.6480  -26.0020 C.cat  80  ARG80       0.5346
     25  NH1       27.0990   18.6130  -25.4450 N.pl3  80  ARG80       0.1354
     26  NH2       28.4240   20.4860  -25.2380 N.pl3  80  ARG80       0.1354
     27  N         25.9490   20.3700  -20.1720 N.3   133  PRO133     -0.2102
     28  CA        25.5780   21.5890  -20.8900 C.3   133  PRO133      0.1504
     29  C         25.3500   21.2320  -22.3500 C.2   133  PRO133      0.2575
     30  O         26.2340   20.6560  -22.9780 O.2   133  PRO133     -0.2718
     31  CB        26.8040   22.4760  -20.7090 C.3   133  PRO133      0.0282
     32  CG        27.3220   22.0500  -19.3610 C.3   133  PRO133      0.0208
     33  CD        27.2080   20.5480  -19.4300 C.3   133  PRO133      0.0893
     34  N         24.1720   21.5560  -22.8810 N.am  134  GLN134     -0.1980
     35  CA        23.8470   21.2710  -24.2810 C.3   134  GLN134      0.1601
     36  C         23.7170   19.7750  -24.5600 C.2   134  GLN134      0.2287
     37  O         23.7400   19.3490  -25.7170 O.2   134  GLN134     -0.2864
     38  CB        24.9220   21.8590  -25.2040 C.3   134  GLN134      0.0394
     39  CG        25.0360   23.3750  -25.1730 C.3   134  GLN134      0.0908
     40  CD        23.9050   24.0500  -25.9050 C.2   134  GLN134      0.2608
     41  OE1       22.7370   23.7430  -25.6800 O.2   134  GLN134     -0.2717
     42  NE2       24.2430   24.9790  -26.7880 N.am  134  GLN134     -0.0878
     43  N         15.1540   29.5180  -31.4750 N.3   190  ARG190     -0.1231
     44  CA        16.1050   28.7070  -30.7050 C.3   190  ARG190      0.1694
     45  C         16.5250   29.4010  -29.4190 C.2   190  ARG190      0.2592
     46  O         16.6620   30.6250  -29.3790 O.2   190  ARG190     -0.2718
     47  CB        17.3690   28.3670  -31.5020 C.3   190  ARG190      0.0321
     48  CG        18.2220   27.3010  -30.7790 C.3   190  ARG190      0.0489
     49  CD        19.5300   26.9510  -31.5000 C.3   190  ARG190      0.2205
     50  NE        19.3290   26.5230  -32.8860 N.pl3 190  ARG190     -0.0865
     51  CZ        18.4610   25.5920  -33.2740 C.cat 190  ARG190      0.5346
     52  NH1       17.7030   24.9790  -32.3790 N.pl3 190  ARG190      0.1354
     53  NH2       18.3460   25.2810  -34.5630 N.pl3 190  ARG190      0.1354
     54  N         16.7490   28.6230  -28.3670 N.am  191  TYR191     -0.1962
     55  CA        17.1520   29.2130  -27.0990 C.3   191  TYR191      0.1771
     56  C         17.5470   28.1410  -26.0820 C.2   191  TYR191      0.2619
     57  O         17.1220   26.9910  -26.1890 O.2   191  TYR191     -0.2715
     58  CB        16.0030   30.0520  -26.5500 C.3   191  TYR191      0.0574
     59  CG        14.9520   29.2460  -25.8280 C.ar  191  TYR191     -0.0198
     60  CD1       15.0710   28.9860  -24.4580 C.ar  191  TYR191     -0.0009
     61  CD2       13.8260   28.7590  -26.4990 C.ar  191  TYR191     -0.0009
     62  CE1       14.0900   28.2690  -23.7690 C.ar  191  TYR191      0.0417
     63  CE2       12.8350   28.0390  -25.8150 C.ar  191  TYR191      0.0417
     64  CZ        12.9790   27.8060  -24.4490 C.ar  191  TYR191      0.1957
     65  OH        11.9930   27.1670  -23.7460 O.3   191  TYR191     -0.2866
     66  N         18.3530   28.5230  -25.0930 N.am  192  ASN192     -0.1972
     67  CA        18.7800   27.5810  -24.0740 C.3   192  ASN192      0.1688
     68  C         17.7390   27.4420  -22.9960 C.2   192  ASN192      0.2292
     69  O         17.3650   28.4240  -22.3490 O.2   192  ASN192     -0.2864
     70  CB        20.1000   28.0140  -23.4560 C.3   192  ASN192      0.1181
     71  CG        21.2620   27.7490  -24.3650 C.2   192  ASN192      0.2629
     72  OD1       21.3740   26.6560  -24.9270 O.2   192  ASN192     -0.2716
     73  ND2       22.1480   28.7230  -24.5180 N.am  192  ASN192     -0.0877
     74  N         18.7420   22.3390  -25.5080 N.3   205  LEU205     -0.1245
     75  CA        18.9350   23.3560  -26.5330 C.3   205  LEU205      0.1561
     76  C         17.6220   23.2990  -27.2990 C.2   205  LEU205      0.2260
     77  O         17.4970   22.5180  -28.2320 O.2   205  LEU205     -0.2867
     78  CB        20.0760   22.9900  -27.4810 C.3   205  LEU205      0.0270
     79  CG        20.1960   23.9560  -28.6720 C.3   205  LEU205      0.0019
     80  CD1       20.7850   25.2670  -28.1950 C.3   205  LEU205      0.0001
     81  CD2       21.0780   23.3750  -29.7540 C.3   205  LEU205      0.0001
     82  N         18.5280   35.3650  -24.6750 N.3   252  THR252     -0.1218
     83  CA        18.2740   35.7280  -26.0630 C.3   252  THR252      0.1862
     84  C         17.5600   34.6060  -26.8090 C.2   252  THR252      0.2287
     85  O         18.0230   33.4630  -26.8410 O.2   252  THR252     -0.2866
     86  CB        19.5800   36.0490  -26.8140 C.3   252  THR252      0.1770
     87  OG1       20.2150   37.1780  -26.2060 O.3   252  THR252     -0.2211
     88  CG2       19.2870   36.3660  -28.2730 C.3   252  THR252      0.0375
     89  N         16.5810   33.4550  -30.3440 N.3   254  PHE254     -0.1241
     90  CA        16.8630   33.6400  -31.7670 C.3   254  PHE254      0.1605
     91  C         15.7630   33.0380  -32.6220 C.2   254  PHE254      0.2264
     92  O         15.0080   32.1810  -32.1570 O.2   254  PHE254     -0.2867
     93  CB        18.1890   32.9690  -32.1510 C.3   254  PHE254      0.0534
     94  CG        19.3740   33.4830  -31.3940 C.ar  254  PHE254     -0.0203
     95  CD1       19.6970   32.9630  -30.1410 C.ar  254  PHE254     -0.0042
     96  CD2       20.1560   34.5070  -31.9200 C.ar  254  PHE254     -0.0042
     97  CE1       20.7830   33.4550  -29.4210 C.ar  254  PHE254     -0.0003
     98  CE2       21.2400   35.0060  -31.2110 C.ar  254  PHE254     -0.0003
     99  CZ        21.5550   34.4790  -29.9570 C.ar  254  PHE254     -0.0000
@<TRIPOS>BOND
     1     4     3    2
     2     3     2    1
     3     1     2    1
     4     2     5    1
     5     5     6    1
     6     6     7    1
     7     6     8    1
     8    53    51    1
     9    51    50    2
    10    51    52    1
    11    19    18    2
    12     9    10    1
    13     9    15    1
    14    12    11    2
    15    50    49    1
    16    10    11    1
    17    10    13    1
    18    18    17    1
    19    11    16   am
    20    91    92    2
    21    91    90    1
    22    16    17    1
    23    93    90    1
    24    93    94    1
    25    15    14    1
    26    17    20    1
    27    96    94   ar
    28    96    98   ar
    29    90    89    1
    30    14    13    1
    31    47    48    1
    32    47    44    1
    33    49    48    1
    34    43    44    1
    35    94    95   ar
    36    98    99   ar
    37    44    45    1
    38    20    21    1
    39    95    97   ar
    40    99    97   ar
    41    81    79    1
    42    21    22    1
    43    45    46    2
    44    45    54   am
    45    79    80    1
    46    79    78    1
    47    54    55    1
    48    88    86    1
    49    22    23    1
    50    77    76    2
    51    78    75    1
    52    23    24    2
    53    76    75    1
    54    55    58    1
    55    55    56    1
    56    85    84    2
    57    86    87    1
    58    86    83    1
    59    84    83    1
    60    42    40   am
    61    58    59    1
    62    75    74    1
    63    61    59   ar
    64    61    63   ar
    65    57    56    2
    66    56    66   am
    67    83    82    1
    68    24    25    1
    69    24    26    1
    70    40    41    2
    71    40    39    1
    72    59    60   ar
    73    63    64   ar
    74    37    36    2
    75    38    39    1
    76    38    35    1
    77    66    67    1
    78    72    71    2
    79    36    35    1
    80    73    71   am
    81    60    62   ar
    82    64    62   ar
    83    64    65    1
    84    71    70    1
    85    35    34    1
    86    67    70    1
    87    67    68    1
    88    68    69    2
    89    30    29    2
    90    34    29   am
    91    29    28    1
    92    28    31    1
    93    28    27    1
    94    31    32    1
    95    27    33    1
    96    33    32    1
