@<TRIPOS>MOLECULE
tmp/1rj6B01.pdb
 130 126 0 0 0
SMALL
GASTEIGER

@<TRIPOS>ATOM
      1  N         13.0500    9.6600  -27.3940 N.3    86  GLN86      -0.1245
      2  CA        11.6290    9.4740  -27.1570 C.3    86  GLN86       0.1566
      3  C         10.8220   10.6890  -27.5950 C.2    86  GLN86       0.2260
      4  O         11.3640   11.7270  -27.9980 O.2    86  GLN86      -0.2867
      5  CB        11.3860    9.2480  -25.6720 C.3    86  GLN86       0.0367
      6  CG        12.0440   10.3080  -24.8150 C.3    86  GLN86       0.0905
      7  CD        11.1740   10.7640  -23.6720 C.2    86  GLN86       0.2608
      8  OE1       10.1000   11.3270  -23.8800 O.2    86  GLN86      -0.2717
      9  NE2       11.6330   10.5250  -22.4510 N.am   86  GLN86      -0.0878
     10  N          6.7490   12.6260  -26.6220 N.3    88  HIS88      -0.1241
     11  CA         5.5230   12.5870  -25.8370 C.3    88  HIS88       0.1621
     12  C          4.6950   13.8250  -26.1060 C.2    88  HIS88       0.2264
     13  O          5.1210   14.7140  -26.8420 O.2    88  HIS88      -0.2867
     14  CB         5.8290   12.4990  -24.3560 C.3    88  HIS88       0.0745
     15  CG         6.8260   13.5050  -23.9030 C.ar   88  HIS88       0.0817
     16  ND1        8.1840   13.2930  -23.9890 N.ar   88  HIS88      -0.2268
     17  CD2        6.6690   14.7460  -23.3920 C.ar   88  HIS88       0.1154
     18  CE1        8.8220   14.3610  -23.5480 C.ar   88  HIS88       0.1986
     19  NE2        7.9250   15.2580  -23.1820 N.ar   88  HIS88      -0.2212
     20  N          1.5460   16.8860  -24.6420 N.3    90  HIS90      -0.1241
     21  CA         0.9870   17.7010  -23.5790 C.3    90  HIS90       0.1621
     22  C         -0.3230   18.2250  -24.1180 C.2    90  HIS90       0.2264
     23  O         -0.4190   18.5360  -25.3080 O.2    90  HIS90      -0.2867
     24  CB         1.9300   18.8430  -23.2550 C.3    90  HIS90       0.0745
     25  CG         3.1980   18.3940  -22.6180 C.ar   90  HIS90       0.0817
     26  ND1        3.2360   17.8620  -21.3510 N.ar   90  HIS90      -0.2268
     27  CD2        4.4670   18.3600  -23.0830 C.ar   90  HIS90       0.1154
     28  CE1        4.4770   17.5180  -21.0600 C.ar   90  HIS90       0.1986
     29  NE2        5.2440   17.8110  -22.0950 N.ar   90  HIS90      -0.2212
     30  N          6.6340   16.8790  -28.1720 N.3   114  HIS114     -0.1241
     31  CA         8.0340   17.0480  -27.8130 C.3   114  HIS114      0.1621
     32  C          8.8590   15.8660  -28.2840 C.2   114  HIS114      0.2264
     33  O          8.5480   14.7140  -27.9610 O.2   114  HIS114     -0.2867
     34  CB         8.1800   17.2170  -26.3050 C.3   114  HIS114      0.0745
     35  CG         7.7570   18.5630  -25.8130 C.ar  114  HIS114      0.0817
     36  ND1        7.8140   18.9210  -24.4860 N.ar  114  HIS114     -0.2268
     37  CD2        7.2780   19.6450  -26.4720 C.ar  114  HIS114      0.1154
     38  CE1        7.3900   20.1650  -24.3470 C.ar  114  HIS114      0.1986
     39  NE2        7.0590   20.6260  -25.5380 N.ar  114  HIS114     -0.2212
     40  N         12.4500   14.3490  -27.9950 N.3   116  VAL116     -0.1245
     41  CA        13.6830   14.4320  -27.2180 C.3   116  VAL116      0.1561
     42  C         14.8970   13.7420  -27.8320 C.2   116  VAL116      0.2260
     43  O         14.8470   12.5700  -28.2020 O.2   116  VAL116     -0.2867
     44  CB        13.4610   13.8620  -25.8120 C.3   116  VAL116      0.0252
     45  CG1       14.5870   14.2870  -24.8960 C.3   116  VAL116      0.0019
     46  CG2       12.1260   14.3350  -25.2770 C.3   116  VAL116      0.0019
     47  N         20.2480    8.5330  -22.8740 N.3   126  LEU126     -0.1231
     48  CA        19.5100    9.7760  -22.7400 C.3   126  LEU126      0.1693
     49  C         19.6950   10.2350  -21.3000 C.2   126  LEU126      0.2592
     50  O         19.8490   11.4210  -21.0240 O.2   126  LEU126     -0.2718
     51  CB        18.0240    9.5240  -23.0240 C.3   126  LEU126      0.0284
     52  CG        17.0110   10.6320  -22.7250 C.3   126  LEU126      0.0019
     53  CD1       16.9340   11.6020  -23.8820 C.3   126  LEU126      0.0001
     54  CD2       15.6520   10.0110  -22.4840 C.3   126  LEU126      0.0001
     55  N         19.6860    9.2720  -20.3860 N.am  127  SER127     -0.1952
     56  CA        19.8480    9.5570  -18.9690 C.3   127  SER127      0.1924
     57  C         21.2540   10.0500  -18.6820 C.2   127  SER127      0.2314
     58  O         21.4670   10.8570  -17.7830 O.2   127  SER127     -0.2863
     59  CB        19.5730    8.3010  -18.1530 C.3   127  SER127      0.2116
     60  OG        20.4570    7.2690  -18.5400 O.3   127  SER127     -0.2180
     61  N         21.3080   13.9570  -19.8490 N.3   130  ALA130     -0.1245
     62  CA        20.2880   14.8290  -19.2720 C.3   130  ALA130      0.1562
     63  C         20.7520   15.8710  -18.2430 C.2   130  ALA130      0.2260
     64  O         20.0030   16.7910  -17.9110 O.2   130  ALA130     -0.2867
     65  CB        19.2020   13.9690  -18.6660 C.3   130  ALA130      0.0290
     66  N         20.9360   17.6950  -23.9260 N.3   136  LEU136     -0.1245
     67  CA        19.6870   17.3410  -24.5780 C.3   136  LEU136      0.1561
     68  C         19.2820   18.3900  -25.6040 C.2   136  LEU136      0.2260
     69  O         19.7380   19.5350  -25.5600 O.2   136  LEU136     -0.2867
     70  CB        18.5740   17.1870  -23.5390 C.3   136  LEU136      0.0270
     71  CG        18.7610   16.0680  -22.5120 C.3   136  LEU136      0.0019
     72  CD1       17.5360   15.9660  -21.6120 C.3   136  LEU136      0.0001
     73  CD2       18.9870   14.7640  -23.2340 C.3   136  LEU136      0.0001
     74  N         15.5430   19.3000  -27.6920 N.3   138  VAL138     -0.1245
     75  CA        14.1480   18.9530  -27.8780 C.3   138  VAL138      0.1561
     76  C         13.5190   19.8000  -28.9830 C.2   138  VAL138      0.2260
     77  O         13.8000   21.0030  -29.1160 O.2   138  VAL138     -0.2867
     78  CB        13.3600   19.1560  -26.5630 C.3   138  VAL138      0.0252
     79  CG1       11.9070   18.7580  -26.7430 C.3   138  VAL138      0.0019
     80  CG2       13.9980   18.3590  -25.4640 C.3   138  VAL138      0.0019
     81  N         14.1690   20.9820  -18.8330 N.3   195  LEU195     -0.1231
     82  CA        13.1360   19.9870  -19.0460 C.3   195  LEU195      0.1693
     83  C         11.9200   20.6760  -18.4200 C.2   195  LEU195      0.2593
     84  O         12.0830   21.5070  -17.5240 O.2   195  LEU195     -0.2718
     85  CB        13.4720   18.6940  -18.2930 C.3   195  LEU195      0.0284
     86  CG        14.7720   17.9470  -18.6380 C.3   195  LEU195      0.0019
     87  CD1       14.9330   16.8020  -17.6510 C.3   195  LEU195      0.0001
     88  CD2       14.7620   17.4210  -20.0860 C.3   195  LEU195      0.0001
     89  N         10.7180   20.3470  -18.8880 N.am  196  THR196     -0.1939
     90  CA         9.4940   20.9690  -18.3810 C.3   196  THR196      0.2028
     91  C          8.8320   20.2030  -17.2470 C.2   196  THR196      0.2643
     92  O          7.6940   20.4840  -16.8830 O.2   196  THR196     -0.2714
     93  CB         8.4510   21.1590  -19.5080 C.3   196  THR196      0.1808
     94  OG1        7.9400   19.8800  -19.9120 O.3   196  THR196     -0.2208
     95  CG2        9.0910   21.8550  -20.7050 C.3   196  THR196      0.0379
     96  N          9.5510   19.2320  -16.7010 N.am  197  THR197     -0.1937
     97  CA         9.0680   18.4230  -15.5850 C.3   197  THR197      0.2013
     98  C         10.2720   18.1250  -14.6930 C.2   197  THR197      0.2484
     99  O         11.4110   18.1130  -15.1630 O.2   197  THR197     -0.2729
    100  CB         8.4780   17.0830  -16.0610 C.3   197  THR197      0.1807
    101  OG1        9.4750   16.3540  -16.7870 O.3   197  THR197     -0.2208
    102  CG2        7.2690   17.3110  -16.9480 C.3   197  THR197      0.0379
    103  N         10.0420   17.8910  -13.3950 N.am  198  PRO198     -0.2715
    104  CA        11.1740   17.5980  -12.5050 C.3   198  PRO198      0.1521
    105  C         12.0320   16.5060  -13.1410 C.2   198  PRO198      0.2440
    106  O         11.5060   15.6340  -13.8400 O.2   198  PRO198     -0.2731
    107  CB        10.4880   17.1160  -11.2350 C.3   198  PRO198      0.0310
    108  CG         9.1880   17.8830  -11.2550 C.3   198  PRO198      0.0237
    109  CD         8.7580   17.7530  -12.6860 C.3   198  PRO198      0.0939
    110  N         13.3560   16.5250  -12.9120 N.am  199  PRO199     -0.2727
    111  CA        14.1800   17.4400  -12.1210 C.3   199  PRO199      0.1402
    112  C         14.3450   18.8350  -12.7010 C.2   199  PRO199      0.2269
    113  O         14.9590   19.6840  -12.0730 O.2   199  PRO199     -0.2865
    114  CB        15.5320   16.7210  -12.0520 C.3   199  PRO199      0.0296
    115  CG        15.2070   15.2890  -12.3520 C.3   199  PRO199      0.0237
    116  CD        14.1900   15.4300  -13.4310 C.3   199  PRO199      0.0939
    117  N         16.5310   24.1320  -26.7640 N.3   206  TRP206     -0.1241
    118  CA        15.2200   24.1630  -27.3890 C.3   206  TRP206      0.1605
    119  C         15.0940   24.7400  -28.7950 C.2   206  TRP206      0.2264
    120  O         15.7790   25.6970  -29.1700 O.2   206  TRP206     -0.2867
    121  CB        14.2330   24.9110  -26.4960 C.3   206  TRP206      0.0550
    122  CG        13.6810   24.1000  -25.4040 C.ar  206  TRP206      0.0003
    123  CD1       14.1230   24.0440  -24.1160 C.ar  206  TRP206      0.0946
    124  CD2       12.5720   23.2090  -25.4890 C.ar  206  TRP206      0.0152
    125  NE1       13.3510   23.1700  -23.3890 N.ar  206  TRP206     -0.2442
    126  CE2       12.3900   22.6440  -24.2140 C.ar  206  TRP206      0.0810
    127  CE3       11.7150   22.8300  -26.5210 C.ar  206  TRP206      0.0012
    128  CZ2       11.3850   21.7210  -23.9460 C.ar  206  TRP206      0.0191
    129  CZ3       10.7190   21.9130  -26.2550 C.ar  206  TRP206      0.0001
    130  CH2       10.5620   21.3680  -24.9780 C.ar  206  TRP206      0.0015
@<TRIPOS>BOND
     1   120   119    2
     2    77    76    2
     3    76    75    1
     4   119   118    1
     5    32    33    2
     6    32    31    1
     7    43    42    2
     8    30    31    1
     9     4     3    2
    10    40    41    1
    11    75    74    1
    12    75    78    1
    13    42    41    1
    14    31    34    1
    15     3     2    1
    16     1     2    1
    17   118   117    1
    18   118   121    1
    19    41    44    1
    20     2     5    1
    21    13    12    2
    22    79    78    1
    23    10    11    1
    24    78    80    1
    25   127   129   ar
    26   127   124   ar
    27   121   122    1
    28    37    35   ar
    29    37    39   ar
    30    34    35    1
    31   129   130   ar
    32    12    11    1
    33    11    14    1
    34    35    36   ar
    35    44    46    1
    36    44    45    1
    37     5     6    1
    38    68    69    2
    39    68    67    1
    40    39    38   ar
    41   124   122   ar
    42   124   126   ar
    43   122   123   ar
    44    23    22    2
    45   130   128   ar
    46     6     7    1
    47    20    21    1
    48    67    66    1
    49    67    70    1
    50    36    38   ar
    51    14    15    1
    52   126   128   ar
    53   126   125   ar
    54    22    21    1
    55   123   125   ar
    56    16    15   ar
    57    16    18   ar
    58    15    17   ar
    59    53    52    1
    60     8     7    2
    61     7     9   am
    62    21    24    1
    63    18    19   ar
    64    70    71    1
    65    17    19   ar
    66    24    25    1
    67    73    71    1
    68    27    25   ar
    69    27    29   ar
    70    51    48    1
    71    51    52    1
    72    47    48    1
    73    48    49    1
    74    52    54    1
    75    25    26   ar
    76    71    72    1
    77    29    28   ar
    78    26    28   ar
    79    49    50    2
    80    49    55   am
    81    95    93    1
    82    55    56    1
    83    88    86    1
    84    94    93    1
    85    61    62    1
    86    93    90    1
    87    62    65    1
    88    62    63    1
    89    82    81    1
    90    82    83    1
    91    82    85    1
    92    56    57    1
    93    56    59    1
    94    89    83   am
    95    89    90    1
    96    57    58    2
    97    86    85    1
    98    86    87    1
    99    60    59    1
   100    83    84    2
   101    90    91    1
   102    63    64    2
   103    91    92    2
   104    91    96   am
   105   102   100    1
   106   101   100    1
   107    96    97    1
   108   100    97    1
   109    97    98    1
   110    99    98    2
   111    98   103   am
   112   106   105    2
   113   116   110    1
   114   116   115    1
   115   103   109    1
   116   103   104    1
   117   105   110   am
   118   105   104    1
   119   110   111    1
   120   112   111    1
   121   112   113    2
   122   109   108    1
   123   104   107    1
   124   115   114    1
   125   111   114    1
   126   108   107    1
