@<TRIPOS>MOLECULE
tmp/1rj6B00.pdb
 92 88 0 0 0
SMALL
GASTEIGER

@<TRIPOS>ATOM
      1  N         21.5540   30.6870  -38.4640 N.3    40  LEU40      -0.1245
      2  CA        20.9840   29.4900  -37.8690 C.3    40  LEU40       0.1561
      3  C         20.7030   28.4500  -38.9460 C.2    40  LEU40       0.2260
      4  O         19.7840   28.6200  -39.7500 O.2    40  LEU40      -0.2867
      5  CB        19.6840   29.8240  -37.1530 C.3    40  LEU40       0.0270
      6  CG        19.8110   30.1380  -35.6710 C.3    40  LEU40       0.0019
      7  CD1       18.4210   30.1980  -35.0570 C.3    40  LEU40       0.0001
      8  CD2       20.6380   29.0570  -34.9890 C.3    40  LEU40       0.0001
      9  N         25.9500   20.1750  -31.9540 N.3    80  ARG80      -0.1245
     10  CA        26.4600   18.8260  -31.7410 C.3    80  ARG80       0.1563
     11  C         25.5340   17.8650  -32.4700 C.2    80  ARG80       0.2260
     12  O         24.4770   18.2710  -32.9560 O.2    80  ARG80      -0.2867
     13  CB        26.4720   18.4890  -30.2560 C.3    80  ARG80       0.0307
     14  CG        27.2380   19.4720  -29.4030 C.3    80  ARG80       0.0489
     15  CD        27.0410   19.1540  -27.9330 C.3    80  ARG80       0.2205
     16  NE        27.5950   20.1820  -27.0530 N.pl3  80  ARG80      -0.0865
     17  CZ        27.4850   20.1690  -25.7270 C.cat  80  ARG80       0.5346
     18  NH1       26.8390   19.1780  -25.1200 N.pl3  80  ARG80       0.1354
     19  NH2       28.0220   21.1470  -25.0060 N.pl3  80  ARG80       0.1354
     20  N         25.6270   20.0950  -19.8210 N.3   133  PRO133     -0.2102
     21  CA        25.2500   21.2950  -20.5680 C.3   133  PRO133      0.1504
     22  C         25.0440   20.9380  -22.0360 C.2   133  PRO133      0.2575
     23  O         25.8320   20.1860  -22.6120 O.2   133  PRO133     -0.2718
     24  CB        26.4430   22.2190  -20.3510 C.3   133  PRO133      0.0282
     25  CG        26.8750   21.8490  -18.9570 C.3   133  PRO133      0.0208
     26  CD        26.8020   20.3400  -18.9720 C.3   133  PRO133      0.0893
     27  N         23.9760   21.4590  -22.6310 N.am  134  GLN134     -0.1980
     28  CA        23.6910   21.1880  -24.0330 C.3   134  GLN134      0.1601
     29  C         23.6150   19.6840  -24.2970 C.2   134  GLN134      0.2287
     30  O         23.7740   19.2350  -25.4330 O.2   134  GLN134     -0.2864
     31  CB        24.7790   21.8100  -24.9150 C.3   134  GLN134      0.0394
     32  CG        24.8860   23.3210  -24.8040 C.3   134  GLN134      0.0908
     33  CD        23.7650   24.0290  -25.5300 C.2   134  GLN134      0.2608
     34  OE1       22.5920   23.7310  -25.3160 O.2   134  GLN134     -0.2717
     35  NE2       24.1190   24.9760  -26.3940 N.am  134  GLN134     -0.0878
     36  N         14.9800   29.3520  -31.4040 N.3   190  ARG190     -0.1231
     37  CA        15.9060   28.5340  -30.6190 C.3   190  ARG190      0.1694
     38  C         16.3070   29.2640  -29.3510 C.2   190  ARG190      0.2592
     39  O         16.3550   30.4880  -29.3290 O.2   190  ARG190     -0.2718
     40  CB        17.1780   28.1730  -31.3920 C.3   190  ARG190      0.0321
     41  CG        17.9090   26.9940  -30.7190 C.3   190  ARG190      0.0489
     42  CD        19.2300   26.6180  -31.3620 C.3   190  ARG190      0.2205
     43  NE        19.1090   26.3140  -32.7850 N.pl3 190  ARG190     -0.0865
     44  CZ        18.3030   25.3870  -33.2870 C.cat 190  ARG190      0.5346
     45  NH1       17.5400   24.6700  -32.4820 N.pl3 190  ARG190      0.1354
     46  NH2       18.2640   25.1740  -34.5960 N.pl3 190  ARG190      0.1354
     47  N         16.6020   28.5120  -28.2970 N.am  191  TYR191     -0.1962
     48  CA        16.9930   29.1170  -27.0290 C.3   191  TYR191      0.1771
     49  C         17.3960   28.0420  -26.0100 C.2   191  TYR191      0.2619
     50  O         17.0160   26.8890  -26.1610 O.2   191  TYR191     -0.2715
     51  CB        15.8240   29.9420  -26.4880 C.3   191  TYR191      0.0574
     52  CG        14.7730   29.1320  -25.7720 C.ar  191  TYR191     -0.0198
     53  CD1       14.8300   28.9570  -24.3930 C.ar  191  TYR191     -0.0009
     54  CD2       13.7260   28.5330  -26.4690 C.ar  191  TYR191     -0.0009
     55  CE1       13.8700   28.2100  -23.7220 C.ar  191  TYR191      0.0417
     56  CE2       12.7580   27.7760  -25.8070 C.ar  191  TYR191      0.0417
     57  CZ        12.8360   27.6210  -24.4310 C.ar  191  TYR191      0.1957
     58  OH        11.8820   26.8850  -23.7540 O.3   191  TYR191     -0.2866
     59  N         18.1640   28.4220  -24.9840 N.am  192  ASN192     -0.1972
     60  CA        18.5910   27.4830  -23.9380 C.3   192  ASN192      0.1688
     61  C         17.5590   27.3850  -22.8270 C.2   192  ASN192      0.2292
     62  O         17.0840   28.3890  -22.3090 O.2   192  ASN192     -0.2864
     63  CB        19.9350   27.9030  -23.3570 C.3   192  ASN192      0.1181
     64  CG        21.0660   27.6070  -24.2900 C.2   192  ASN192      0.2629
     65  OD1       21.1320   26.4930  -24.8060 O.2   192  ASN192     -0.2716
     66  ND2       21.9610   28.5700  -24.5100 N.am  192  ASN192     -0.0877
     67  N         18.6540   22.2470  -25.2460 N.3   205  LEU205     -0.1245
     68  CA        18.7500   23.2840  -26.2670 C.3   205  LEU205      0.1561
     69  C         17.4360   23.2010  -27.0410 C.2   205  LEU205      0.2260
     70  O         17.2460   22.3070  -27.8590 O.2   205  LEU205     -0.2867
     71  CB        19.9170   23.0110  -27.2090 C.3   205  LEU205      0.0270
     72  CG        19.9810   23.8810  -28.4740 C.3   205  LEU205      0.0019
     73  CD1       19.9830   25.3350  -28.1050 C.3   205  LEU205      0.0001
     74  CD2       21.2250   23.5400  -29.2840 C.3   205  LEU205      0.0001
     75  N         18.2720   35.4720  -24.4180 N.3   252  THR252     -0.1218
     76  CA        17.9650   35.8840  -25.7830 C.3   252  THR252      0.1862
     77  C         17.3280   34.7260  -26.5410 C.2   252  THR252      0.2287
     78  O         17.7270   33.5680  -26.4020 O.2   252  THR252     -0.2866
     79  CB        19.2310   36.3390  -26.5470 C.3   252  THR252      0.1770
     80  OG1       19.6950   37.5930  -26.0170 O.3   252  THR252     -0.2211
     81  CG2       18.9260   36.4860  -28.0340 C.3   252  THR252      0.0375
     82  N         16.4180   33.4620  -30.3460 N.3   254  PHE254     -0.1241
     83  CA        16.6710   33.6590  -31.7630 C.3   254  PHE254      0.1605
     84  C         15.5870   33.0290  -32.5930 C.2   254  PHE254      0.2264
     85  O         14.8890   32.1350  -32.1340 O.2   254  PHE254     -0.2867
     86  CB        18.0150   33.0490  -32.1680 C.3   254  PHE254      0.0534
     87  CG        19.1510   33.5310  -31.3420 C.ar  254  PHE254     -0.0203
     88  CD1       19.4660   32.9070  -30.1360 C.ar  254  PHE254     -0.0042
     89  CD2       19.8680   34.6560  -31.7210 C.ar  254  PHE254     -0.0042
     90  CE1       20.4750   33.4050  -29.3230 C.ar  254  PHE254     -0.0003
     91  CE2       20.8770   35.1570  -30.9110 C.ar  254  PHE254     -0.0003
     92  CZ        21.1780   34.5310  -29.7130 C.ar  254  PHE254     -0.0000
@<TRIPOS>BOND
     1     4     3    2
     2     3     2    1
     3     1     2    1
     4     2     5    1
     5     5     6    1
     6     6     7    1
     7     6     8    1
     8    46    44    1
     9    44    43    2
    10    44    45    1
    11    12    11    2
    12    43    42    1
    13    84    85    2
    14    84    83    1
    15    11    10    1
    16    86    83    1
    17    86    87    1
    18     9    10    1
    19    83    82    1
    20    10    13    1
    21    89    87   ar
    22    89    91   ar
    23    36    37    1
    24    40    41    1
    25    40    37    1
    26    42    41    1
    27    87    88   ar
    28    91    92   ar
    29    37    38    1
    30    13    14    1
    31    88    90   ar
    32    92    90   ar
    33    14    15    1
    34    38    39    2
    35    38    47   am
    36    74    72    1
    37    72    73    1
    38    72    71    1
    39    47    48    1
    40    81    79    1
    41    15    16    1
    42    70    69    2
    43    71    68    1
    44    16    17    2
    45    69    68    1
    46    48    51    1
    47    48    49    1
    48    79    80    1
    49    79    76    1
    50    77    78    2
    51    77    76    1
    52    51    52    1
    53    54    56   ar
    54    54    52   ar
    55    35    33   am
    56    68    67    1
    57    50    49    2
    58    49    59   am
    59    56    57   ar
    60    76    75    1
    61    52    53   ar
    62    17    18    1
    63    17    19    1
    64    33    34    2
    65    33    32    1
    66    30    29    2
    67    59    60    1
    68    31    32    1
    69    31    28    1
    70    65    64    2
    71    66    64   am
    72    57    58    1
    73    57    55   ar
    74    53    55   ar
    75    29    28    1
    76    64    63    1
    77    28    27    1
    78    60    63    1
    79    60    61    1
    80    61    62    2
    81    27    22   am
    82    23    22    2
    83    22    21    1
    84    21    24    1
    85    21    20    1
    86    24    25    1
    87    20    26    1
    88    26    25    1
