@<TRIPOS>MOLECULE
tmp/1rj9A00.pdb
 142 131 0 0 0
SMALL
GASTEIGER

@<TRIPOS>ATOM
      1  N         37.1100   -0.6800   30.7830 N.3    85  ASN85      -0.1225
      2  CA        36.5080    0.2110   31.7720 C.3    85  ASN85       0.1785
      3  C         36.8490    1.6960   31.6050 C.2    85  ASN85       0.2598
      4  O         38.0230    2.0680   31.5320 O.2    85  ASN85      -0.2718
      5  CB        36.9370   -0.2180   33.1790 C.3    85  ASN85       0.1169
      6  CG        36.5640   -1.6510   33.4960 C.2    85  ASN85       0.2627
      7  OD1       35.5420   -1.9160   34.1410 O.2    85  ASN85      -0.2716
      8  ND2       37.3860   -2.5890   33.0350 N.am   85  ASN85      -0.0877
      9  N         35.8120    2.5310   31.5530 N.am   86  GLY86      -0.1942
     10  CA        35.9900    3.9740   31.4680 C.3    86  GLY86       0.2014
     11  C         36.1790    4.6900   30.1440 C.2    86  GLY86       0.2639
     12  O         36.2460    5.9170   30.1290 O.2    86  GLY86      -0.2714
     13  N         36.2350    3.9540   29.0390 N.am   87  VAL87      -0.1963
     14  CA        36.4760    4.5650   27.7390 C.3    87  VAL87       0.1727
     15  C         35.3820    5.4200   27.1230 C.2    87  VAL87       0.2617
     16  O         35.6890    6.2940   26.3140 O.2    87  VAL87      -0.2715
     17  CB        36.9040    3.5100   26.6980 C.3    87  VAL87       0.0290
     18  CG1       38.1280    2.7730   27.2050 C.3    87  VAL87       0.0023
     19  CG2       35.7610    2.5470   26.4160 C.3    87  VAL87       0.0023
     20  N         34.1240    5.1730   27.4820 N.am   88  GLY88      -0.1940
     21  CA        33.0320    5.9700   26.9390 C.3    88  GLY88       0.2014
     22  C         31.9450    5.1970   26.2100 C.2    88  GLY88       0.2639
     23  O         31.2040    5.7680   25.4120 O.2    88  GLY88      -0.2714
     24  N         31.8310    3.9020   26.4960 N.am   89  LYS89      -0.1963
     25  CA        30.8320    3.0610   25.8400 C.3    89  LYS89       0.1728
     26  C         29.3880    3.5570   25.9910 C.2    89  LYS89       0.2617
     27  O         28.6890    3.7720   25.0000 O.2    89  LYS89      -0.2715
     28  CB        30.9310    1.6250   26.3700 C.3    89  LYS89       0.0311
     29  CG        32.2680    0.9460   26.1030 C.3    89  LYS89       0.0038
     30  CD        32.3190   -0.4680   26.6950 C.3    89  LYS89       0.0206
     31  CE        32.2170   -0.4580   28.2180 C.3    89  LYS89       0.1093
     32  NZ        33.3080    0.3140   28.8710 N.3    89  LYS89      -0.1314
     33  N         28.9500    3.7380   27.2310 N.am   90  THR90      -0.1937
     34  CA        27.5850    4.1710   27.5180 C.3    90  THR90       0.2028
     35  C         27.2000    5.5180   26.9090 C.2    90  THR90       0.2643
     36  O         26.1340    5.6470   26.3040 O.2    90  THR90      -0.2714
     37  CB        27.3460    4.1910   29.0410 C.3    90  THR90       0.1808
     38  OG1       27.4640    2.8550   29.5370 O.3    90  THR90      -0.2208
     39  CG2       25.9450    4.7190   29.3760 C.3    90  THR90       0.0379
     40  N         28.0650    6.5160   27.0590 N.am   91  THR91      -0.1936
     41  CA        27.7990    7.8400   26.5020 C.3    91  THR91       0.2028
     42  C         27.8140    7.8280   24.9600 C.2    91  THR91       0.2642
     43  O         27.0570    8.5620   24.3060 O.2    91  THR91      -0.2714
     44  CB        28.8410    8.8650   26.9970 C.3    91  THR91       0.1808
     45  OG1       28.8770    8.8560   28.4310 O.3    91  THR91      -0.2208
     46  CG2       28.4870   10.2610   26.5120 C.3    91  THR91       0.0379
     47  N         28.6850    7.0050   24.3810 N.am   92  THR92      -0.1950
     48  CA        28.7740    6.9090   22.9270 C.3    92  THR92       0.1897
     49  C         27.4730    6.3220   22.3790 C.2    92  THR92       0.2313
     50  O         27.0050    6.7210   21.3140 O.2    92  THR92      -0.2863
     51  CB        29.9740    6.0330   22.4980 C.3    92  THR92       0.1794
     52  OG1       31.1840    6.6570   22.9420 O.3    92  THR92      -0.2208
     53  CG2       30.0230    5.8790   20.9720 C.3    92  THR92       0.0378
     54  N         24.9260    8.9920   22.1970 N.3    95  LYS95      -0.1245
     55  CA        25.1950    9.8310   21.0280 C.3    95  LYS95       0.1561
     56  C         24.7970    9.1520   19.7170 C.2    95  LYS95       0.2260
     57  O         24.3720    9.8140   18.7690 O.2    95  LYS95      -0.2867
     58  CB        26.6810   10.1960   20.9500 C.3    95  LYS95       0.0271
     59  CG        27.2240   11.0160   22.1150 C.3    95  LYS95       0.0035
     60  CD        28.7290   11.1900   21.9270 C.3    95  LYS95       0.0206
     61  CE        29.3770   11.9680   23.0480 C.3    95  LYS95       0.1093
     62  NZ        30.8440   12.0450   22.8110 N.3    95  LYS95      -0.1314
     63  N         25.1980   -3.4600   30.6890 N.3   113  ASP113     -0.1239
     64  CA        26.0650   -3.4100   31.8590 C.3   113  ASP113      0.1674
     65  C         25.1990   -3.6580   33.0890 C.2   113  ASP113      0.2266
     66  O         24.5810   -2.7410   33.6280 O.2   113  ASP113     -0.2867
     67  CB        26.7620   -2.0490   31.9790 C.3   113  ASP113      0.1410
     68  CG        27.6450   -1.9560   33.2180 C.2   113  ASP113      0.3668
     69  OD1       28.2830   -0.8990   33.4310 O.co2 113  ASP113     -0.2456
     70  OD2       27.6980   -2.9430   33.9850 O.co2 113  ASP113     -0.2456
     71  N         28.2900   -3.1660   36.8820 N.3   116  ARG116     -0.1245
     72  CA        28.7070   -1.9860   37.6370 C.3   116  ARG116      0.1563
     73  C         27.5670   -1.1610   38.2430 C.2   116  ARG116      0.2260
     74  O         26.4660   -1.0860   37.6920 O.2   116  ARG116     -0.2867
     75  CB        29.5640   -1.0840   36.7460 C.3   116  ARG116      0.0307
     76  CG        30.4640   -0.1210   37.5060 C.3   116  ARG116      0.0489
     77  CD        30.6190    1.1690   36.7330 C.3   116  ARG116      0.2205
     78  NE        29.3800    1.9450   36.7520 N.pl3 116  ARG116     -0.0865
     79  CZ        28.9510    2.7060   35.7530 C.cat 116  ARG116      0.5346
     80  NH1       29.6590    2.7960   34.6350 N.pl3 116  ARG116      0.1354
     81  NH2       27.8170    3.3820   35.8750 N.pl3 116  ARG116      0.1354
     82  N         22.2590    4.5260   34.2800 N.3   122  GLN122     -0.1245
     83  CA        22.9210    5.6120   33.5580 C.3   122  GLN122      0.1566
     84  C         22.4320    5.6370   32.1090 C.2   122  GLN122      0.2260
     85  O         22.1690    6.7030   31.5470 O.2   122  GLN122     -0.2867
     86  CB        24.4420    5.4150   33.5690 C.3   122  GLN122      0.0367
     87  CG        25.2310    6.4860   32.8130 C.3   122  GLN122      0.0905
     88  CD        26.7100    6.1430   32.6970 C.2   122  GLN122      0.2608
     89  OE1       27.0840    4.9870   33.2320 O.2   122  GLN122     -0.2717
     90  NE2       27.5060    6.9090   32.1370 N.am  122  GLN122     -0.0878
     91  N         27.7460   -2.8070   27.0410 N.3   166  THR166     -0.1218
     92  CA        28.3460   -3.9050   27.7870 C.3   166  THR166      0.1862
     93  C         29.1180   -3.3090   28.9500 C.2   166  THR166      0.2287
     94  O         29.5290   -2.1530   28.8980 O.2   166  THR166     -0.2866
     95  CB        29.3200   -4.7470   26.9280 C.3   166  THR166      0.1770
     96  OG1       30.3310   -3.9000   26.3680 O.3   166  THR166     -0.2211
     97  CG2       28.5710   -5.4690   25.8140 C.3   166  THR166      0.0375
     98  N         32.2190   -2.5090   31.3760 N.3   168  GLY168     -0.1225
     99  CA        33.6170   -2.3260   31.0440 C.3   168  GLY168      0.1811
    100  C         34.3290   -3.5750   31.5300 C.2   168  GLY168      0.2280
    101  O         33.8860   -4.2010   32.4910 O.2   168  GLY168     -0.2866
    102  N         36.9100    8.1780   21.4530 N.3   229  THR229     -0.1203
    103  CA        36.2770    9.2160   22.2510 C.3   229  THR229      0.1994
    104  C         37.2670   10.1980   22.8580 C.2   229  THR229      0.2617
    105  O         38.4820   10.0040   22.8010 O.2   229  THR229     -0.2717
    106  CB        35.4890    8.5870   23.4050 C.3   229  THR229      0.1784
    107  OG1       36.4020    7.9300   24.2940 O.3   229  THR229     -0.2211
    108  CG2       34.4990    7.5660   22.8770 C.3   229  THR229      0.0376
    109  N         36.7170   11.2610   23.4330 N.am  230  LYS230     -0.1979
    110  CA        37.4980   12.2850   24.1170 C.3   230  LYS230      0.1596
    111  C         38.5390   12.9990   23.2610 C.2   230  LYS230      0.2287
    112  O         39.5720   13.4370   23.7670 O.2   230  LYS230     -0.2864
    113  CB        38.1420   11.6570   25.3590 C.3   230  LYS230      0.0298
    114  CG        37.1140   10.9850   26.2670 C.3   230  LYS230      0.0038
    115  CD        37.7530   10.0920   27.3280 C.3   230  LYS230      0.0206
    116  CE        36.6920    9.2620   28.0490 C.3   230  LYS230      0.1093
    117  NZ        37.2670    8.2700   29.0150 N.3   230  LYS230     -0.1314
    118  N         38.1360   15.7470   22.1190 N.3   232  ASP232     -0.1239
    119  CA        37.9770   17.1690   22.3890 C.3   232  ASP232      0.1674
    120  C         39.0950   17.5930   23.3420 C.2   232  ASP232      0.2266
    121  O         39.3020   18.7810   23.5880 O.2   232  ASP232     -0.2867
    122  CB        36.5890   17.4970   22.9850 C.3   232  ASP232      0.1410
    123  CG        36.1330   16.5010   24.0530 C.2   232  ASP232      0.3668
    124  OD1       35.5670   16.9480   25.0770 O.co2 232  ASP232     -0.2456
    125  OD2       36.3100   15.2810   23.8640 O.co2 232  ASP232     -0.2456
    126  N         34.3750   10.8520   19.1820 N.3   255  GLY255     -0.1225
    127  CA        33.6070   11.4730   20.2470 C.3   255  GLY255      0.1811
    128  C         34.3100   12.7660   20.6090 C.2   255  GLY255      0.2280
    129  O         35.5260   12.7700   20.8010 O.2   255  GLY255     -0.2866
    130  N         32.9160   15.2720   23.1010 N.3   257  GLY257     -0.1210
    131  CA        32.2020   15.9740   24.1480 C.3   257  GLY257      0.1956
    132  C         31.3350   15.0380   24.9570 C.2   257  GLY257      0.2611
    133  O         31.3310   13.8250   24.7310 O.2   257  GLY257     -0.2717
    134  N         30.5880   15.5980   25.8960 N.am  258  GLU258     -0.1979
    135  CA        29.7310   14.7900   26.7490 C.3   258  GLU258      0.1602
    136  C         28.2530   15.0370   26.4860 C.2   258  GLU258      0.2287
    137  O         27.3980   14.5890   27.2500 O.2   258  GLU258     -0.2864
    138  CB        30.0640   15.0650   28.2130 C.3   258  GLU258      0.0415
    139  CG        31.5390   14.8660   28.5210 C.3   258  GLU258      0.1163
    140  CD        31.8750   15.1050   29.9760 C.2   258  GLU258      0.3649
    141  OE1       31.4390   14.3050   30.8340 O.co2 258  GLU258     -0.2457
    142  OE2       32.5740   16.0990   30.2600 O.co2 258  GLU258     -0.2457
@<TRIPOS>BOND
     1    57    56    2
     2   126   127    1
     3    56    55    1
     4   127   128    1
     5   128   129    2
     6    58    55    1
     7    58    59    1
     8    53    51    1
     9    55    54    1
    10    50    49    2
    11   102   103    1
    12    60    59    1
    13    60    61    1
    14   118   119    1
    15   103   104    1
    16   103   106    1
    17    49    48    1
    18   119   122    1
    19   119   120    1
    20    51    48    1
    21    51    52    1
    22   105   104    2
    23    62    61    1
    24   104   109   am
    25   108   106    1
    26    48    47    1
    27   122   123    1
    28   130   131    1
    29   111   112    2
    30   111   110    1
    31   120   121    2
    32   106   107    1
    33   109   110    1
    34   125   123   ar
    35   123   124   ar
    36   110   113    1
    37   131   132    1
    38    43    42    2
    39    47    42   am
    40   133   132    2
    41   132   134   am
    42    42    41    1
    43    27    26    2
    44   113   114    1
    45    23    22    2
    46    97    95    1
    47    25    26    1
    48    25    28    1
    49    25    24    1
    50   134   135    1
    51    26    33   am
    52    29    28    1
    53    29    30    1
    54    22    24   am
    55    22    21    1
    56   114   115    1
    57    36    35    2
    58    16    15    2
    59    96    95    1
    60    19    17    1
    61   136   135    1
    62   136   137    2
    63    41    44    1
    64    41    40    1
    65    46    44    1
    66    30    31    1
    67    17    18    1
    68    17    14    1
    69   135   138    1
    70    35    40   am
    71    35    34    1
    72    95    92    1
    73    21    20    1
    74    44    45    1
    75    91    92    1
    76    15    20   am
    77    15    14    1
    78    33    34    1
    79   115   116    1
    80    34    37    1
    81    14    13    1
    82    92    93    1
    83   116   117    1
    84   138   139    1
    85    31    32    1
    86   139   140    1
    87    94    93    2
    88    13    11   am
    89    37    39    1
    90    37    38    1
    91   140   142   ar
    92   140   141   ar
    93    12    11    2
    94    11    10    1
    95    63    64    1
    96     1     2    1
    97    99    98    1
    98    99   100    1
    99    10     9    1
   100   100   101    2
   101     4     3    2
   102    85    84    2
   103     9     3   am
   104     3     2    1
   105     2     5    1
   106    64    67    1
   107    64    65    1
   108    67    68    1
   109    84    83    1
   110    90    88   am
   111    88    87    1
   112    88    89    2
   113    87    86    1
   114     8     6   am
   115    65    66    2
   116     5     6    1
   117    68    69   ar
   118    68    70   ar
   119     6     7    2
   120    83    86    1
   121    83    82    1
   122    80    79    1
   123    79    81    1
   124    79    78    2
   125    77    78    1
   126    77    76    1
   127    75    76    1
   128    75    72    1
   129    71    72    1
   130    72    73    1
   131    74    73    2
