@<TRIPOS>MOLECULE
tmp/1rjdC00.pdb
 192 182 0 0 0
SMALL
GASTEIGER

@<TRIPOS>ATOM
      1  N         34.7800  108.5620  -40.9240 N.3     4  ILE4       -0.1231
      2  CA        33.9710  109.7370  -40.5760 C.3     4  ILE4        0.1692
      3  C         32.5890  109.2680  -40.1510 C.2     4  ILE4        0.2591
      4  O         32.0580  109.7250  -39.1390 O.2     4  ILE4       -0.2718
      5  CB        33.8670  110.7280  -41.7480 C.3     4  ILE4        0.0266
      6  CG1       35.2640  111.2420  -42.1280 C.3     4  ILE4        0.0019
      7  CG2       32.9420  111.9170  -41.3740 C.3     4  ILE4        0.0020
      8  CD1       35.3290  112.0840  -43.4110 C.3     4  ILE4        0.0001
      9  N         32.0230  108.3360  -40.9140 N.am    5  GLN5       -0.1979
     10  CA        30.7010  107.7730  -40.5930 C.3     5  GLN5        0.1601
     11  C         30.6710  107.2580  -39.1570 C.2     5  GLN5        0.2287
     12  O         29.6660  107.4360  -38.4590 O.2     5  GLN5       -0.2864
     13  CB        30.3340  106.6230  -41.5410 C.3     5  GLN5        0.0394
     14  CG        29.7210  107.0510  -42.8590 C.3     5  GLN5        0.0908
     15  CD        29.6830  105.9220  -43.8790 C.2     5  GLN5        0.2608
     16  OE1       29.6170  104.7420  -43.5090 O.2     5  GLN5       -0.2717
     17  NE2       29.7480  106.2770  -45.1650 N.am    5  GLN5       -0.0878
     18  N         32.2280  108.2400  -36.4660 N.3     7  THR7       -0.1203
     19  CA        32.2260  109.2340  -35.3860 C.3     7  THR7        0.1994
     20  C         30.8590  109.3420  -34.7290 C.2     7  THR7        0.2617
     21  O         30.7200  109.9010  -33.6370 O.2     7  THR7       -0.2717
     22  CB        32.6030  110.6300  -35.8980 C.3     7  THR7        0.1784
     23  OG1       31.7620  110.9840  -37.0090 O.3     7  THR7       -0.2211
     24  CG2       34.0210  110.6550  -36.4410 C.3     7  THR7        0.0376
     25  N         29.8490  108.8350  -35.4060 N.am    8  ASP8       -0.1973
     26  CA        28.4950  108.8600  -34.8610 C.3     8  ASP8        0.1709
     27  C         28.3400  107.8550  -33.7200 C.2     8  ASP8        0.2293
     28  O         27.4790  108.0060  -32.8640 O.2     8  ASP8       -0.2864
     29  CB        27.4880  108.5930  -35.9590 C.3     8  ASP8        0.1436
     30  CG        26.1180  108.3740  -35.4230 C.2     8  ASP8        0.3671
     31  OD1       25.5630  109.3220  -34.8120 O.co2   8  ASP8       -0.2456
     32  OD2       25.5520  107.2830  -35.5220 O.co2   8  ASP8       -0.2456
     33  N         29.0860  109.7350  -30.7450 N.3    11  ALA11      -0.1245
     34  CA        27.9390  110.6110  -30.4770 C.3    11  ALA11       0.1562
     35  C         26.7850  109.8820  -29.8280 C.2    11  ALA11       0.2260
     36  O         26.1970  110.3850  -28.8720 O.2    11  ALA11      -0.2867
     37  CB        27.4420  111.2580  -31.7500 C.3    11  ALA11       0.0290
     38  N         25.2180  110.2700  -25.9680 N.3    15  LYS15      -0.1245
     39  CA        23.7790  110.4460  -25.7740 C.3    15  LYS15       0.1561
     40  C         23.2430  109.4130  -24.8290 C.2    15  LYS15       0.2260
     41  O         22.5760  109.7280  -23.8650 O.2    15  LYS15      -0.2867
     42  CB        23.0720  110.3000  -27.1250 C.3    15  LYS15       0.0271
     43  CG        21.5970  110.7590  -27.1650 C.3    15  LYS15       0.0035
     44  CD        21.3900  112.2570  -26.9800 C.3    15  LYS15       0.0206
     45  CE        22.1430  113.1030  -27.9920 C.3    15  LYS15       0.1093
     46  NZ        21.7800  112.7820  -29.3910 N.3    15  LYS15      -0.1314
     47  N         25.5070  120.4430  -24.9530 N.3    80  ARG80      -0.1245
     48  CA        25.3120  120.3060  -26.4080 C.3    80  ARG80       0.1563
     49  C         23.8410  120.1350  -26.7570 C.2    80  ARG80       0.2260
     50  O         23.2930  120.8570  -27.5960 O.2    80  ARG80      -0.2867
     51  CB        26.1700  119.0980  -26.8390 C.3    80  ARG80       0.0307
     52  CG        26.1180  118.6100  -28.2260 C.3    80  ARG80       0.0489
     53  CD        27.1370  117.4860  -28.4200 C.3    80  ARG80       0.2205
     54  NE        26.9890  116.7030  -29.6500 N.pl3  80  ARG80      -0.0865
     55  CZ        27.8920  115.8360  -30.0930 C.cat  80  ARG80       0.5346
     56  NH1       29.0460  115.6800  -29.4630 N.pl3  80  ARG80       0.1354
     57  NH2       27.6670  115.1490  -31.2040 N.pl3  80  ARG80       0.1354
     58  N         18.4150  118.4150  -40.7270 N.3   102  ASN102     -0.1240
     59  CA        19.5210  117.9710  -39.8810 C.3   102  ASN102      0.1653
     60  C         20.6340  117.3950  -40.7610 C.2   102  ASN102      0.2266
     61  O         20.5100  116.3100  -41.3050 O.2   102  ASN102     -0.2867
     62  CB        19.0390  116.9530  -38.8360 C.3   102  ASN102      0.1155
     63  CG        20.0420  116.7370  -37.7160 C.2   102  ASN102      0.2627
     64  OD1       21.2660  116.6540  -37.9400 O.2   102  ASN102     -0.2716
     65  ND2       19.5320  116.6340  -36.5030 N.am  102  ASN102     -0.0877
     66  N         24.1220  115.7450  -41.5650 N.3   104  GLY104     -0.1210
     67  CA        24.9330  114.7640  -40.8530 C.3   104  GLY104      0.1956
     68  C         24.3040  114.2950  -39.5510 C.2   104  GLY104      0.2612
     69  O         24.9410  114.2990  -38.4930 O.2   104  GLY104     -0.2717
     70  N         23.0580  113.8410  -39.6460 N.am  105  CYS105     -0.1956
     71  CA        22.2210  113.5590  -38.5040 C.3   105  CYS105      0.1843
     72  C         22.6950  112.3760  -37.6760 C.2   105  CYS105      0.2626
     73  O         22.3640  112.2860  -36.5220 O.2   105  CYS105     -0.2714
     74  CB        20.7870  113.2720  -38.9660 C.3   105  CYS105      0.0997
     75  SG        20.6530  111.8610  -40.0980 S.3   105  CYS105     -0.0797
     76  N         23.4300  111.4450  -38.2660 N.am  106  GLY106     -0.1940
     77  CA        23.7370  110.2040  -37.5760 C.3   106  GLY106      0.2014
     78  C         22.5240  109.5860  -36.8720 C.2   106  GLY106      0.2640
     79  O         21.4390  109.4960  -37.4660 O.2   106  GLY106     -0.2714
     80  N         22.7000  109.2010  -35.6020 N.am  107  SER107     -0.1935
     81  CA        21.6790  108.5020  -34.8160 C.3   107  SER107      0.2055
     82  C         20.7370  109.4210  -34.0190 C.2   107  SER107      0.2643
     83  O         19.9880  108.9590  -33.1630 O.2   107  SER107     -0.2714
     84  CB        22.3520  107.4930  -33.8610 C.3   107  SER107      0.2130
     85  OG        23.1370  106.5630  -34.6030 O.3   107  SER107     -0.2179
     86  N         20.7660  110.7200  -34.3070 N.am  108  ASP108     -0.1971
     87  CA        19.9790  111.7010  -33.5570 C.3   108  ASP108      0.1709
     88  C         18.5080  111.3470  -33.5970 C.2   108  ASP108      0.2293
     89  O         17.9640  111.0420  -34.6580 O.2   108  ASP108     -0.2864
     90  CB        20.2020  113.0790  -34.2100 C.3   108  ASP108      0.1436
     91  CG        19.7330  114.2350  -33.3810 C.2   108  ASP108      0.3671
     92  OD1       19.2210  114.0630  -32.2380 O.co2 108  ASP108     -0.2456
     93  OD2       19.8830  115.4030  -33.8260 O.co2 108  ASP108     -0.2456
     94  N         22.2480  112.0540  -44.0790 N.3   127  ASP127     -0.1225
     95  CA        23.6010  111.5430  -43.7880 C.3   127  ASP127      0.1805
     96  C         24.0780  110.7010  -44.9790 C.2   127  ASP127      0.2597
     97  O         23.3470  110.5430  -45.9480 O.2   127  ASP127     -0.2718
     98  CB        23.6060  110.7150  -42.4840 C.3   127  ASP127      0.1424
     99  CG        24.9410  110.7700  -41.7210 C.2   127  ASP127      0.3668
    100  OD1       25.9620  110.2350  -42.2010 O.co2 127  ASP127     -0.2456
    101  OD2       25.0610  111.2740  -40.5880 O.co2 127  ASP127     -0.2456
    102  N         25.3210  110.2030  -44.9220 N.am  128  TYR128     -0.1976
    103  CA        25.8450  109.2930  -45.9530 C.3   128  TYR128      0.1639
    104  C         24.9420  108.0640  -46.1320 C.2   128  TYR128      0.2290
    105  O         24.2410  107.6750  -45.2050 O.2   128  TYR128     -0.2864
    106  CB        27.2180  108.7790  -45.5390 C.3   128  TYR128      0.0560
    107  CG        28.3900  109.7020  -45.7680 C.ar  128  TYR128     -0.0198
    108  CD1       29.2020  110.0970  -44.7110 C.ar  128  TYR128     -0.0009
    109  CD2       28.7490  110.0990  -47.0540 C.ar  128  TYR128     -0.0009
    110  CE1       30.3280  110.8960  -44.9170 C.ar  128  TYR128      0.0417
    111  CE2       29.8770  110.8800  -47.2640 C.ar  128  TYR128      0.0417
    112  CZ        30.6510  111.2790  -46.1980 C.ar  128  TYR128      0.1957
    113  OH        31.7530  112.0600  -46.4210 O.3   128  TYR128     -0.2866
    114  N         25.1660  105.2140  -43.5270 N.3   131  SER131     -0.1217
    115  CA        24.6260  105.6150  -42.2490 C.3   131  SER131      0.1889
    116  C         23.1170  105.6490  -42.2280 C.2   131  SER131      0.2288
    117  O         22.5050  105.0970  -41.3170 O.2   131  SER131     -0.2866
    118  CB        25.2080  106.9680  -41.8160 C.3   131  SER131      0.2089
    119  OG        26.6230  106.8650  -41.8100 O.3   131  SER131     -0.2183
    120  N         22.8320  111.3720  -48.7630 N.3   173  CYS173     -0.1221
    121  CA        23.4880  112.4290  -49.5280 C.3   173  CYS173      0.1808
    122  C         24.9060  112.6090  -49.0150 C.2   173  CYS173      0.2601
    123  O         25.1580  112.4780  -47.8020 O.2   173  CYS173     -0.2717
    124  CB        22.7100  113.7320  -49.3830 C.3   173  CYS173      0.0970
    125  SG        23.2090  115.0420  -50.5210 S.3   173  CYS173     -0.0800
    126  N         25.8340  112.8560  -49.9370 N.am  174  ASP174     -0.1959
    127  CA        27.1820  113.3150  -49.6030 C.3   174  ASP174      0.1840
    128  C         27.1620  114.8270  -49.6250 C.2   174  ASP174      0.2622
    129  O         27.0740  115.4290  -50.6840 O.2   174  ASP174     -0.2715
    130  CB        28.2170  112.7950  -50.6220 C.3   174  ASP174      0.1450
    131  CG        29.6650  113.0080  -50.1760 C.2   174  ASP174      0.3671
    132  OD1       29.9140  113.7990  -49.2390 O.co2 174  ASP174     -0.2456
    133  OD2       30.6310  112.3940  -50.7060 O.co2 174  ASP174     -0.2456
    134  N         27.2580  115.4330  -48.4530 N.am  175  LEU175     -0.1963
    135  CA        27.1940  116.8860  -48.3160 C.3   175  LEU175      0.1728
    136  C         28.4270  117.6380  -48.8660 C.2   175  LEU175      0.2616
    137  O         28.4280  118.8740  -48.8900 O.2   175  LEU175     -0.2715
    138  CB        26.9500  117.2290  -46.8530 C.3   175  LEU175      0.0311
    139  CG        25.5860  116.7580  -46.3050 C.3   175  LEU175      0.0022
    140  CD1       25.5580  116.9660  -44.8060 C.3   175  LEU175      0.0001
    141  CD2       24.3870  117.4850  -46.9840 C.3   175  LEU175      0.0001
    142  N         29.4590  116.9060  -49.2990 N.am  176  ASN176     -0.1972
    143  CA        30.6050  117.4950  -50.0260 C.3   176  ASN176      0.1688
    144  C         30.3340  117.6890  -51.5210 C.2   176  ASN176      0.2292
    145  O         31.1700  118.2410  -52.2510 O.2   176  ASN176     -0.2864
    146  CB        31.8300  116.5860  -49.9080 C.3   176  ASN176      0.1181
    147  CG        32.4050  116.5380  -48.5160 C.2   176  ASN176      0.2629
    148  OD1       32.7810  115.4630  -48.0310 O.2   176  ASN176     -0.2716
    149  ND2       32.5120  117.6960  -47.8730 N.am  176  ASN176     -0.0877
    150  N         25.3770  119.5200  -36.1500 N.3   200  GLU200     -0.1231
    151  CA        25.9190  119.1600  -34.8360 C.3   200  GLU200      0.1699
    152  C         27.1000  118.2220  -35.0520 C.2   200  GLU200      0.2592
    153  O         26.9040  117.0640  -35.4170 O.2   200  GLU200     -0.2718
    154  CB        24.8060  118.4530  -34.0440 C.3   200  GLU200      0.0402
    155  CG        25.2120  118.0880  -32.6260 C.3   200  GLU200      0.1161
    156  CD        24.0720  117.4720  -31.8220 C.2   200  GLU200      0.3649
    157  OE1       22.9410  117.3440  -32.3010 O.co2 200  GLU200     -0.2457
    158  OE2       24.3690  117.0870  -30.6240 O.co2 200  GLU200     -0.2457
    159  N         28.3240  118.7160  -34.8590 N.am  201  CYS201     -0.1956
    160  CA        29.5500  117.9400  -35.1670 C.3   201  CYS201      0.1843
    161  C         29.5650  117.3690  -36.5790 C.2   201  CYS201      0.2625
    162  O         29.9220  116.2090  -36.7660 O.2   201  CYS201     -0.2714
    163  CB        29.7540  116.7890  -34.1680 C.3   201  CYS201      0.0997
    164  SG        29.8170  117.3490  -32.4640 S.3   201  CYS201     -0.0797
    165  N         29.1760  118.1860  -37.5570 N.am  202  LEU202     -0.1977
    166  CA        29.2460  117.8270  -38.9600 C.3   202  LEU202      0.1596
    167  C         30.3760  118.6000  -39.6260 C.2   202  LEU202      0.2287
    168  O         31.2500  118.0220  -40.2370 O.2   202  LEU202     -0.2864
    169  CB        27.9560  118.1710  -39.7060 C.3   202  LEU202      0.0297
    170  CG        28.1650  118.1910  -41.2220 C.3   202  LEU202      0.0022
    171  CD1       28.4340  116.7660  -41.7020 C.3   202  LEU202      0.0001
    172  CD2       27.0140  118.8110  -41.8880 C.3   202  LEU202      0.0001
    173  N         34.2710  117.9460  -39.7240 N.3   205  TYR205     -0.1227
    174  CA        34.8350  116.8660  -40.5400 C.3   205  TYR205      0.1736
    175  C         35.0150  117.2340  -42.0200 C.2   205  TYR205      0.2595
    176  O         35.4950  116.4200  -42.8110 O.2   205  TYR205     -0.2718
    177  CB        33.9520  115.6330  -40.3970 C.3   205  TYR205      0.0548
    178  CG        33.9360  115.1310  -38.9740 C.ar  205  TYR205     -0.0200
    179  CD1       32.7580  115.0950  -38.2300 C.ar  205  TYR205     -0.0009
    180  CD2       35.1070  114.7350  -38.3550 C.ar  205  TYR205     -0.0009
    181  CE1       32.7540  114.6500  -36.9130 C.ar  205  TYR205      0.0417
    182  CE2       35.1130  114.2750  -37.0410 C.ar  205  TYR205      0.0417
    183  CZ        33.9350  114.2390  -36.3250 C.ar  205  TYR205      0.1957
    184  OH        33.9510  113.7890  -35.0250 O.3   205  TYR205     -0.2866
    185  N         34.6790  118.4740  -42.3740 N.am  206  MET206     -0.1979
    186  CA        34.7200  118.9490  -43.7540 C.3   206  MET206      0.1605
    187  C         35.8240  119.9840  -43.9800 C.2   206  MET206      0.2287
    188  O         36.1430  120.7760  -43.0900 O.2   206  MET206     -0.2864
    189  CB        33.3540  119.5480  -44.1180 C.3   206  MET206      0.0413
    190  CG        32.2150  118.5210  -44.1310 C.3   206  MET206      0.0598
    191  SD        30.5570  119.2430  -44.4290 S.3   206  MET206     -0.1393
    192  CE        30.6320  119.8020  -46.0730 C.3   206  MET206      0.0692
@<TRIPOS>BOND
     1   145   144    2
     2   144   143    1
     3   133   131   ar
     4   129   128    2
     5   130   131    1
     6   130   127    1
     7   125   124    1
     8   131   132   ar
     9   143   146    1
    10   143   142    1
    11   126   127    1
    12   126   122   am
    13   146   147    1
    14   128   127    1
    15   128   134   am
    16   121   124    1
    17   121   122    1
    18   121   120    1
    19   142   136   am
    20   122   123    2
    21   137   136    2
    22   136   135    1
    23   147   148    2
    24   147   149   am
    25   134   135    1
    26   135   138    1
    27   111   109   ar
    28   111   112   ar
    29   109   107   ar
    30   141   139    1
    31   138   139    1
    32   113   112    1
    33   139   140    1
    34   112   110   ar
    35   104   103    1
    36   104   105    2
    37   192   191    1
    38   103   106    1
    39   103   102    1
    40    97    96    2
    41   107   106    1
    42   107   108   ar
    43    17    15   am
    44    96   102   am
    45    96    95    1
    46   110   108   ar
    47   191   190    1
    48   190   189    1
    49   189   186    1
    50    94    95    1
    51   187   186    1
    52   187   188    2
    53    15    16    2
    54    15    14    1
    55    95    98    1
    56   186   185    1
    57   114   115    1
    58     8     6    1
    59    14    13    1
    60   176   175    2
    61    98    99    1
    62   185   175   am
    63   115   116    1
    64   115   118    1
    65   116   117    2
    66   100    99   ar
    67     6     5    1
    68   175   174    1
    69   172   170    1
    70   118   119    1
    71     5     7    1
    72     5     2    1
    73    99   101   ar
    74   171   170    1
    75    66    67    1
    76    13    10    1
    77    61    60    2
    78   170   169    1
    79     1     2    1
    80     9    10    1
    81     9     3   am
    82    67    68    1
    83    60    59    1
    84    58    59    1
    85    10    11    1
    86     2     3    1
    87   174   177    1
    88   174   173    1
    89   177   178    1
    90   168   167    2
    91     3     4    2
    92    75    74    1
    93    59    62    1
    94   169   166    1
    95    70    68   am
    96    70    71    1
    97   167   166    1
    98    68    69    2
    99    11    12    2
   100   178   180   ar
   101   178   179   ar
   102    74    71    1
   103   166   165    1
   104    62    63    1
   105    71    72    1
   106   180   182   ar
   107    76    72   am
   108    76    77    1
   109   179   181   ar
   110    64    63    2
   111    63    65   am
   112    72    73    2
   113    77    78    1
   114   165   161   am
   115    79    78    2
   116   182   183   ar
   117    23    22    1
   118   181   183   ar
   119    78    80   am
   120   162   161    2
   121   161   160    1
   122    18    19    1
   123    24    22    1
   124   183   184    1
   125   150   151    1
   126    29    30    1
   127    29    26    1
   128    22    19    1
   129    80    81    1
   130    32    30   ar
   131    30    31   ar
   132   153   152    2
   133    25    26    1
   134    25    20   am
   135    19    20    1
   136   160   159    1
   137   160   163    1
   138   152   159   am
   139   152   151    1
   140    26    27    1
   141   151   154    1
   142    81    82    1
   143    81    84    1
   144    20    21    2
   145    89    88    2
   146    85    84    1
   147    86    82   am
   148    86    87    1
   149    90    87    1
   150    90    91    1
   151   163   164    1
   152   154   155    1
   153    82    83    2
   154    93    91   ar
   155    27    28    2
   156    88    87    1
   157    91    92   ar
   158   155   156    1
   159   157   156   ar
   160   156   158   ar
   161    37    34    1
   162    57    55    1
   163    33    34    1
   164    34    35    1
   165    55    54    2
   166    55    56    1
   167    35    36    2
   168    54    53    1
   169    46    45    1
   170    53    52    1
   171    52    51    1
   172    45    44    1
   173    50    49    2
   174    43    42    1
   175    43    44    1
   176    42    39    1
   177    51    48    1
   178    49    48    1
   179    48    47    1
   180    38    39    1
   181    39    40    1
   182    40    41    2
