@<TRIPOS>MOLECULE
tmp/1rjnB00.pdb
 126 120 0 0 0
SMALL
GASTEIGER

@<TRIPOS>ATOM
      1  N         64.7150   -5.3170    1.1510 N.3    43  GLU43      -0.1231
      2  CA        63.9250   -4.2700    0.5140 C.3    43  GLU43       0.1699
      3  C         64.0380   -2.9360    1.2570 C.2    43  GLU43       0.2592
      4  O         63.8800   -1.8720    0.6550 O.2    43  GLU43      -0.2718
      5  CB        62.4480   -4.6910    0.3940 C.3    43  GLU43       0.0402
      6  CG        61.7040   -4.9040    1.7130 C.3    43  GLU43       0.1161
      7  CD        62.0130   -6.2360    2.3980 C.2    43  GLU43       0.3649
      8  OE1       61.4270   -6.4870    3.4720 O.co2  43  GLU43      -0.2457
      9  OE2       62.8260   -7.0260    1.8710 O.co2  43  GLU43      -0.2457
     10  N         64.3140   -2.9920    2.5600 N.am   44  VAL44      -0.1966
     11  CA        64.4700   -1.7760    3.3570 C.3    44  VAL44       0.1727
     12  C         65.8590   -1.6880    3.9940 C.2    44  VAL44       0.2616
     13  O         66.0170   -1.1990    5.1140 O.2    44  VAL44      -0.2715
     14  CB        63.3930   -1.6690    4.4640 C.3    44  VAL44       0.0290
     15  CG1       62.0170   -1.5540    3.8230 C.3    44  VAL44       0.0023
     16  CG2       63.4570   -2.8770    5.3980 C.3    44  VAL44       0.0023
     17  N         66.8640   -2.1640    3.2680 N.am   45  ARG45      -0.1977
     18  CA        68.2410   -2.1260    3.7390 C.3    45  ARG45       0.1597
     19  C         68.4260   -2.8290    5.0720 C.2    45  ARG45       0.2287
     20  O         69.2100   -2.3940    5.9130 O.2    45  ARG45      -0.2864
     21  CB        68.7060   -0.6780    3.8460 C.3    45  ARG45       0.0334
     22  CG        68.7560    0.0320    2.5050 C.3    45  ARG45       0.0492
     23  CD        70.1690    0.4710    2.1790 C.3    45  ARG45       0.2205
     24  NE        70.3650    0.6720    0.7450 N.pl3  45  ARG45      -0.0865
     25  CZ        70.3270   -0.3060   -0.1580 C.cat  45  ARG45       0.5346
     26  NH1       70.1030   -1.5640    0.2160 N.pl3  45  ARG45       0.1354
     27  NH2       70.5110   -0.0280   -1.4390 N.pl3  45  ARG45       0.1354
     28  N         66.8000   -2.9090    7.7630 N.3    47  ALA47      -0.1245
     29  CA        66.5780   -2.0880    8.9450 C.3    47  ALA47       0.1562
     30  C         65.7280   -2.9550    9.8550 C.2    47  ALA47       0.2260
     31  O         64.9970   -3.8120    9.3720 O.2    47  ALA47      -0.2867
     32  CB        65.8170   -0.8200    8.5770 C.3    47  ALA47       0.0290
     33  N         64.5910   -3.8720   -4.6450 N.3    82  LYS82      -0.1231
     34  CA        64.3350   -2.5290   -5.1340 C.3    82  LYS82       0.1693
     35  C         65.4410   -1.9110   -6.0030 C.2    82  LYS82       0.2592
     36  O         65.1640   -1.3580   -7.0670 O.2    82  LYS82      -0.2718
     37  CB        64.0350   -1.6030   -3.9690 C.3    82  LYS82       0.0285
     38  CG        62.5840   -1.1330   -3.9150 C.3    82  LYS82       0.0035
     39  CD        62.4530    0.2160   -3.2190 C.3    82  LYS82       0.0206
     40  CE        61.1490    0.2820   -2.4380 C.3    82  LYS82       0.1093
     41  NZ        60.5140    1.6270   -2.5410 N.3    82  LYS82      -0.1314
     42  N         66.6840   -1.9850   -5.5270 N.am   83  ASP83      -0.1974
     43  CA        67.7970   -1.3700   -6.2460 C.3    83  ASP83       0.1709
     44  C         69.0660   -2.1940   -6.3530 C.2    83  ASP83       0.2293
     45  O         70.0940   -1.6750   -6.7820 O.2    83  ASP83      -0.2864
     46  CB        68.1540   -0.0310   -5.5980 C.3    83  ASP83       0.1436
     47  CG        68.4270   -0.1600   -4.1080 C.2    83  ASP83       0.3671
     48  OD1       68.9810   -1.2030   -3.6960 O.co2  83  ASP83      -0.2456
     49  OD2       68.0950    0.7850   -3.3590 O.co2  83  ASP83      -0.2456
     50  N         70.8990   -1.5900    8.3570 N.3    90  SER90      -0.1202
     51  CA        70.8960   -0.1350    8.3530 C.3    90  SER90       0.2020
     52  C         70.4070    0.4520    9.6760 C.2    90  SER90       0.2619
     53  O         70.2200    1.6620    9.7920 O.2    90  SER90      -0.2717
     54  CB        70.0250    0.3800    7.2080 C.3    90  SER90       0.2103
     55  OG        68.6650    0.0520    7.4290 O.3    90  SER90      -0.2182
     56  N         70.1900   -0.4030   10.6720 N.am   91  GLY91      -0.1942
     57  CA        69.7410    0.0900   11.9600 C.3    91  GLY91       0.2014
     58  C         68.2390    0.0990   12.1540 C.2    91  GLY91       0.2639
     59  O         67.5100   -0.6370   11.4900 O.2    91  GLY91      -0.2714
     60  N         67.7800    0.9440   13.0720 N.am   92  GLY92      -0.1939
     61  CA        66.3630    1.0340   13.3670 C.3    92  GLY92       0.2014
     62  C         65.5100    1.4450   12.1870 C.2    92  GLY92       0.2639
     63  O         65.9490    2.1890   11.3120 O.2    92  GLY92      -0.2714
     64  N         64.2810    0.9510   12.1630 N.am   93  ASP93      -0.1957
     65  CA        63.3500    1.2750   11.0960 C.3    93  ASP93       0.1840
     66  C         62.6040    2.5490   11.4960 C.2    93  ASP93       0.2622
     67  O         61.7560    2.5270   12.3820 O.2    93  ASP93      -0.2715
     68  CB        62.3520    0.1240   10.9090 C.3    93  ASP93       0.1450
     69  CG        61.5360    0.2520    9.6320 C.2    93  ASP93       0.3671
     70  OD1       60.9370    1.3220    9.4080 O.co2  93  ASP93      -0.2456
     71  OD2       61.4850   -0.7250    8.8540 O.co2  93  ASP93      -0.2456
     72  N         62.9310    3.6600   10.8540 N.am   94  GLN94      -0.1963
     73  CA        62.2830    4.9190   11.1570 C.3    94  GLN94       0.1733
     74  C         60.8440    4.8820   10.6280 C.2    94  GLN94       0.2616
     75  O         60.5200    5.4880    9.5990 O.2    94  GLN94      -0.2715
     76  CB        63.0860    6.0550   10.5220 C.3    94  GLN94       0.0408
     77  CG        64.6060    5.8550   10.6460 C.3    94  GLN94       0.0908
     78  CD        65.2950    6.9480   11.4490 C.2    94  GLN94       0.2608
     79  OE1       65.1510    7.0360   12.6720 O.2    94  GLN94      -0.2717
     80  NE2       66.0600    7.8010   10.7460 N.am   94  GLN94      -0.0878
     81  N         59.9940    4.1450   11.3420 N.am   95  ARG95      -0.1977
     82  CA        58.5900    3.9870   10.9840 C.3    95  ARG95       0.1597
     83  C         57.7350    4.7400   11.9910 C.2    95  ARG95       0.2287
     84  O         57.7780    4.4540   13.1940 O.2    95  ARG95      -0.2864
     85  CB        58.2040    2.4970   11.0080 C.3    95  ARG95       0.0334
     86  CG        57.0460    2.1050   10.0800 C.3    95  ARG95       0.0492
     87  CD        57.5600    1.9070    8.6690 C.3    95  ARG95       0.2205
     88  NE        58.3150    3.0780    8.2400 N.pl3  95  ARG95      -0.0865
     89  CZ        59.1120    3.1150    7.1800 C.cat  95  ARG95       0.5346
     90  NH1       59.2710    2.0370    6.4210 N.pl3  95  ARG95       0.1354
     91  NH2       59.7560    4.2370    6.8850 N.pl3  95  ARG95       0.1354
     92  N         75.9280   -2.1620    3.9180 N.3   118  TRP118     -0.1241
     93  CA        75.8030   -1.0650    4.8560 C.3   118  TRP118      0.1605
     94  C         75.6220   -1.5700    6.2770 C.2   118  TRP118      0.2264
     95  O         74.8610   -2.5030    6.5260 O.2   118  TRP118     -0.2867
     96  CB        74.6150   -0.1500    4.5030 C.3   118  TRP118      0.0550
     97  CG        74.8570    0.7480    3.3310 C.ar  118  TRP118      0.0003
     98  CD1       74.5700    0.4770    2.0230 C.ar  118  TRP118      0.0946
     99  CD2       75.4880    2.0300    3.3370 C.ar  118  TRP118      0.0152
    100  NE1       74.9910    1.4980    1.2110 N.ar  118  TRP118     -0.2442
    101  CE2       75.5760    2.4680    1.9930 C.ar  118  TRP118      0.0810
    102  CE3       76.0200    2.8490    4.3430 C.ar  118  TRP118      0.0012
    103  CZ2       76.1440    3.6880    1.6270 C.ar  118  TRP118      0.0191
    104  CZ3       76.5910    4.0660    3.9810 C.ar  118  TRP118      0.0001
    105  CH2       76.6610    4.4680    2.6380 C.ar  118  TRP118      0.0015
    106  N         74.9250    0.5920    9.4550 N.3   120  ALA120     -0.1245
    107  CA        74.6690    1.9290    9.9760 C.3   120  ALA120      0.1562
    108  C         73.8090    1.9620   11.2260 C.2   120  ALA120      0.2260
    109  O         72.9690    1.0860   11.4390 O.2   120  ALA120     -0.2867
    110  CB        74.0190    2.7810    8.8870 C.3   120  ALA120      0.0290
    111  N         79.0200    3.2460    8.7900 N.3   143  LYS143     -0.1245
    112  CA        78.6260    4.6200    9.0310 C.3   143  LYS143      0.1561
    113  C         77.8240    4.7190   10.3270 C.2   143  LYS143      0.2260
    114  O         76.7680    4.1020   10.4610 O.2   143  LYS143     -0.2867
    115  CB        77.7890    5.1270    7.8500 C.3   143  LYS143      0.0271
    116  CG        77.5460    6.6350    7.8480 C.3   143  LYS143      0.0035
    117  CD        76.6210    7.0490    6.7030 C.3   143  LYS143      0.0206
    118  CE        76.6510    8.5600    6.4790 C.3   143  LYS143      0.1093
    119  NZ        78.0030    9.0200    6.0520 N.3   143  LYS143     -0.1314
    120  N         75.5080    6.6670   12.0040 N.3   145  THR145     -0.1218
    121  CA        74.5640    7.7400   11.7380 C.3   145  THR145      0.1862
    122  C         73.7420    8.1710   12.9490 C.2   145  THR145      0.2287
    123  O         72.8150    8.9640   12.8120 O.2   145  THR145     -0.2866
    124  CB        73.5870    7.3140   10.6290 C.3   145  THR145      0.1770
    125  OG1       72.9460    6.0930   11.0150 O.3   145  THR145     -0.2211
    126  CG2       74.3260    7.0930    9.3250 C.3   145  THR145      0.0375
@<TRIPOS>BOND
     1    36    35    2
     2    45    44    2
     3    44    43    1
     4    43    46    1
     5    43    42    1
     6    35    42   am
     7    35    34    1
     8    46    47    1
     9    34    33    1
    10    34    37    1
    11    47    48   ar
    12    47    49   ar
    13    37    38    1
    14    38    39    1
    15    39    40    1
    16    41    40    1
    17    27    25    1
    18    25    26    1
    19    25    24    2
    20     5     2    1
    21     5     6    1
    22     2     1    1
    23     2     3    1
    24     4     3    2
    25    24    23    1
    26   100   101   ar
    27   100    98   ar
    28     3    10   am
    29   103   101   ar
    30   103   105   ar
    31     6     7    1
    32     9     7   ar
    33   101    99   ar
    34    98    97   ar
    35    23    22    1
    36     7     8   ar
    37    22    21    1
    38    10    11    1
    39   105   104   ar
    40    17    18    1
    41    17    12   am
    42    97    99   ar
    43    97    96    1
    44    99   102   ar
    45    11    12    1
    46    11    14    1
    47    18    21    1
    48    18    19    1
    49    15    14    1
    50    92    93    1
    51   104   102   ar
    52    12    13    2
    53    14    16    1
    54    96    93    1
    55    93    94    1
    56    19    20    2
    57   119   118    1
    58    94    95    2
    59    90    89    1
    60   118   117    1
    61   117   116    1
    62    91    89    1
    63    89    88    2
    64    54    55    1
    65    54    51    1
    66    28    29    1
    67   116   115    1
    68   115   112    1
    69    88    87    1
    70    51    50    1
    71    51    52    1
    72    32    29    1
    73    87    86    1
    74   111   112    1
    75    71    69   ar
    76   110   107    1
    77    29    30    1
    78   112   113    1
    79   126   124    1
    80    31    30    2
    81    70    69   ar
    82   106   107    1
    83    75    74    2
    84    69    68    1
    85    52    53    2
    86    52    56   am
    87   107   108    1
    88    86    85    1
    89   113   114    2
    90    76    77    1
    91    76    73    1
    92    74    73    1
    93    74    81   am
    94   124   125    1
    95   124   121    1
    96    77    78    1
    97    56    57    1
    98    80    78   am
    99    72    73    1
   100    72    66   am
   101    68    65    1
   102    82    85    1
   103    82    81    1
   104    82    83    1
   105    65    66    1
   106    65    64    1
   107   108   109    2
   108    63    62    2
   109    78    79    2
   110    59    58    2
   111    66    67    2
   112   121   120    1
   113   121   122    1
   114    57    58    1
   115    83    84    2
   116    58    60   am
   117    64    62   am
   118    62    61    1
   119   123   122    2
   120    60    61    1
