@<TRIPOS>MOLECULE
tmp/1rk2B00.pdb
 105 93 0 0 0
SMALL
GASTEIGER

@<TRIPOS>ATOM
      1  N         11.2580   10.9180  106.8140 N.3    13  ASN13      -0.1240
      2  CA        11.3670   10.6150  105.3890 C.3    13  ASN13       0.1653
      3  C         10.0670   10.8660  104.6350 C.2    13  ASN13       0.2266
      4  O          8.9860   10.8870  105.2110 O.2    13  ASN13      -0.2867
      5  CB        11.7160    9.1360  105.1630 C.3    13  ASN13       0.1155
      6  CG        13.1370    8.7870  105.5320 C.2    13  ASN13       0.2627
      7  OD1       13.4750    7.6070  105.6700 O.2    13  ASN13      -0.2716
      8  ND2       13.9820    9.7850  105.6580 N.am   13  ASN13      -0.0877
      9  N          8.1420    8.9630  101.8940 N.3    15  ASP15      -0.1239
     10  CA         8.1460    7.6490  101.2560 C.3    15  ASP15       0.1674
     11  C          7.5280    7.6250   99.8590 C.2    15  ASP15       0.2266
     12  O          6.4920    8.2370   99.6020 O.2    15  ASP15      -0.2867
     13  CB         7.4090    6.5950  102.1040 C.3    15  ASP15       0.1410
     14  CG         8.0760    6.3230  103.4520 C.2    15  ASP15       0.3668
     15  OD1        9.2910    6.5710  103.6070 O.co2  15  ASP15      -0.2456
     16  OD2        7.3780    5.8240  104.3540 O.co2  15  ASP15      -0.2456
     17  N          7.1120    9.2480  106.0740 N.3    40  GLY40      -0.1210
     18  CA         7.7320    8.0880  106.6760 C.3    40  GLY40       0.1956
     19  C          8.9060    8.4040  107.5740 C.2    40  GLY40       0.2612
     20  O          9.0120    9.4970  108.1290 O.2    40  GLY40      -0.2717
     21  N          9.8050    7.4340  107.6950 N.am   41  GLY41      -0.1942
     22  CA        10.9590    7.5890  108.5570 C.3    41  GLY41       0.2014
     23  C         10.6180    6.9450  109.8900 C.2    41  GLY41       0.2638
     24  O          9.6040    7.2810  110.5060 O.2    41  GLY41      -0.2714
     25  N         11.4560    6.0160  110.3370 N.am   42  LYS42      -0.1977
     26  CA        11.2070    5.3170  111.5900 C.3    42  LYS42       0.1596
     27  C         11.0120    6.2660  112.7670 C.2    42  LYS42       0.2287
     28  O         10.1690    6.0270  113.6230 O.2    42  LYS42      -0.2864
     29  CB        12.3440    4.3300  111.8710 C.3    42  LYS42       0.0298
     30  CG        12.3870    3.1700  110.8780 C.3    42  LYS42       0.0038
     31  CD        13.5520    2.2250  111.1260 C.3    42  LYS42       0.0206
     32  CE        13.4550    0.9740  110.2360 C.3    42  LYS42       0.1093
     33  NZ        13.4120    1.2540  108.7500 N.3    42  LYS42      -0.1314
     34  N          7.5540    7.9010  112.2060 N.3    45  ASN45      -0.1240
     35  CA         6.4980    6.9090  112.3290 C.3    45  ASN45       0.1653
     36  C          6.2790    6.5660  113.8050 C.2    45  ASN45       0.2266
     37  O          5.1460    6.4740  114.2720 O.2    45  ASN45      -0.2867
     38  CB         6.8240    5.6310  111.5390 C.3    45  ASN45       0.1155
     39  CG         7.0000    5.8820  110.0390 C.2    45  ASN45       0.2627
     40  OD1        6.4490    6.8430  109.4750 O.2    45  ASN45      -0.2716
     41  ND2        7.7470    5.0000  109.3800 N.am   45  ASN45      -0.0877
     42  N         12.7460    7.8940  100.9810 N.3    97  ALA97      -0.1245
     43  CA        12.8540    6.4460  100.9990 C.3    97  ALA97       0.1562
     44  C         12.1370    5.9210   99.7610 C.2    97  ALA97       0.2260
     45  O         11.0040    6.3220   99.4830 O.2    97  ALA97      -0.2867
     46  CB        12.2140    5.8750  102.2630 C.3    97  ALA97       0.0290
     47  N         10.5540    2.7020   98.0410 N.3    99  ILE99      -0.1245
     48  CA        10.0730    1.4110   98.5200 C.3    99  ILE99       0.1561
     49  C          9.2890    0.5260   97.5490 C.2    99  ILE99       0.2260
     50  O          8.3600    0.9800   96.8700 O.2    99  ILE99      -0.2867
     51  CB         9.1870    1.6230   99.7690 C.3    99  ILE99       0.0252
     52  CG1        9.8960    2.5430  100.7700 C.3    99  ILE99       0.0019
     53  CG2        8.8820    0.2840  100.4240 C.3    99  ILE99       0.0019
     54  CD1        9.0570    2.8890  101.9880 C.3    99  ILE99       0.0001
     55  N         13.6310   -1.4270  101.1140 N.3   109  ILE109     -0.1245
     56  CA        13.7630    0.0250  101.2190 C.3   109  ILE109      0.1561
     57  C         15.1560    0.5960  100.9490 C.2   109  ILE109      0.2260
     58  O         16.1500    0.1320  101.5040 O.2   109  ILE109     -0.2867
     59  CB        13.3390    0.4890  102.6350 C.3   109  ILE109      0.0252
     60  CG1       11.9590   -0.0730  102.9780 C.3   109  ILE109      0.0019
     61  CG2       13.3300    2.0060  102.7120 C.3   109  ILE109      0.0019
     62  CD1       11.4940    0.2620  104.3800 C.3   109  ILE109      0.0001
     63  N         17.2590    4.1610  101.1010 N.3   111  ILE111     -0.1245
     64  CA        17.1650    5.4810  101.7140 C.3   111  ILE111      0.1561
     65  C         18.1680    6.5700  101.3430 C.2   111  ILE111      0.2260
     66  O         19.3700    6.3360  101.2500 O.2   111  ILE111     -0.2867
     67  CB        17.2060    5.3600  103.2570 C.3   111  ILE111      0.0252
     68  CG1       15.9090    4.7390  103.7660 C.3   111  ILE111      0.0019
     69  CG2       17.4460    6.7250  103.8930 C.3   111  ILE111      0.0019
     70  CD1       15.8480    4.6420  105.2870 C.3   111  ILE111      0.0001
     71  N         18.2380    5.2140  112.1820 N.3   142  GLU142     -0.1245
     72  CA        18.2540    5.9640  110.9270 C.3   142  GLU142      0.1567
     73  C         18.8300    7.3560  111.1790 C.2   142  GLU142      0.2260
     74  O         18.6710    8.2680  110.3710 O.2   142  GLU142     -0.2867
     75  CB        16.8540    6.0780  110.3170 C.3   142  GLU142      0.0388
     76  CG        16.1920    4.7400  110.0680 C.3   142  GLU142      0.1160
     77  CD        14.9870    4.8350  109.1460 C.2   142  GLU142      0.3649
     78  OE1       14.1610    5.7510  109.3260 O.co2 142  GLU142     -0.2457
     79  OE2       14.8580    3.9730  108.2540 O.co2 142  GLU142     -0.2457
     80  N          4.3080   -1.9950  106.3810 N.3   250  ILE250     -0.1231
     81  CA         5.3500   -0.9820  106.5210 C.3   250  ILE250      0.1692
     82  C          4.9700   -0.2580  107.8110 C.2   250  ILE250      0.2591
     83  O          3.7990    0.0530  108.0240 O.2   250  ILE250     -0.2718
     84  CB         5.3220    0.0530  105.3650 C.3   250  ILE250      0.0266
     85  CG1        5.5500   -0.6340  104.0210 C.3   250  ILE250      0.0019
     86  CG2        6.4010    1.0980  105.5860 C.3   250  ILE250      0.0020
     87  CD1        5.3610    0.2920  102.8260 C.3   250  ILE250      0.0001
     88  N          5.9370   -0.0010  108.6760 N.am  251  ALA251     -0.1980
     89  CA         5.6460    0.7070  109.9280 C.3   251  ALA251      0.1597
     90  C          4.9190   -0.1200  110.9930 C.2   251  ALA251      0.2287
     91  O          4.4490    0.4340  111.9910 O.2   251  ALA251     -0.2864
     92  CB         4.8460    1.9910  109.6340 C.3   251  ALA251      0.0319
     93  N          7.2780    0.0490  113.8160 N.3   254  ASP254     -0.1239
     94  CA         7.3210    1.4150  114.3160 C.3   254  ASP254      0.1674
     95  C          6.0910    1.7170  115.1660 C.2   254  ASP254      0.2266
     96  O          6.1920    2.3840  116.1930 O.2   254  ASP254     -0.2867
     97  CB         7.3920    2.4270  113.1680 C.3   254  ASP254      0.1410
     98  CG         8.6380    2.2780  112.3380 C.2   254  ASP254      0.3668
     99  OD1        9.6980    2.0030  112.9270 O.co2 254  ASP254     -0.2456
    100  OD2        8.5660    2.4660  111.1050 O.co2 254  ASP254     -0.2456
    101  N          3.0660    4.3930  105.7220 N.3   290  ALA290     -0.1245
    102  CA         3.6160    4.3930  107.0720 C.3   290  ALA290      0.1562
    103  C          2.7250    5.1560  108.0520 C.2   290  ALA290      0.2260
    104  O          1.8950    4.5630  108.7440 O.2   290  ALA290     -0.2867
    105  CB         5.0240    4.9920  107.0630 C.3   290  ALA290      0.0290
@<TRIPOS>BOND
     1    50    49    2
     2    49    48    1
     3    47    48    1
     4    48    51    1
     5    45    44    2
     6    12    11    2
     7    44    43    1
     8    51    53    1
     9    51    52    1
    10    11    10    1
    11    52    54    1
    12    57    56    1
    13    57    58    2
    14    42    43    1
    15    43    46    1
    16    63    64    1
    17    55    56    1
    18    56    59    1
    19    66    65    2
    20    10     9    1
    21    10    13    1
    22    65    64    1
    23    64    67    1
    24    13    14    1
    25    59    61    1
    26    59    60    1
    27    87    85    1
    28    60    62    1
    29    67    68    1
    30    67    69    1
    31    14    15   ar
    32    14    16   ar
    33    68    70    1
    34    85    84    1
    35     3     4    2
    36     3     2    1
    37     5     2    1
    38     5     6    1
    39    84    86    1
    40    84    81    1
    41     2     1    1
    42     6     8   am
    43     6     7    2
    44   101   102    1
    45    17    18    1
    46    80    81    1
    47    81    82    1
    48    18    19    1
    49   105   102    1
    50   102   103    1
    51    19    21   am
    52    19    20    2
    53    21    22    1
    54    82    83    2
    55    82    88   am
    56   103   104    2
    57    79    77   ar
    58    22    23    1
    59    88    89    1
    60    33    32    1
    61    77    78   ar
    62    77    76    1
    63    41    39   am
    64    40    39    2
    65    92    89    1
    66    23    25   am
    67    23    24    2
    68    89    90    1
    69    39    38    1
    70    76    75    1
    71    32    31    1
    72    75    72    1
    73    25    26    1
    74    74    73    2
    75    30    31    1
    76    30    29    1
    77    72    73    1
    78    72    71    1
    79    90    91    2
    80   100    98   ar
    81    38    35    1
    82    26    29    1
    83    26    27    1
    84    34    35    1
    85    35    36    1
    86    98    99   ar
    87    98    97    1
    88    27    28    2
    89    97    94    1
    90    36    37    2
    91    93    94    1
    92    94    95    1
    93    95    96    2
