@<TRIPOS>MOLECULE
tmp/1rk2B01.pdb
 152 141 0 0 0
SMALL
GASTEIGER

@<TRIPOS>ATOM
      1  N         15.0050    0.8050  119.2450 N.3   165  ASN165     -0.1240
      2  CA        14.4880   -0.0680  118.1860 C.3   165  ASN165      0.1653
      3  C         15.6780   -0.1180  117.2390 C.2   165  ASN165      0.2266
      4  O         15.9020    0.8230  116.4680 O.2   165  ASN165     -0.2867
      5  CB        13.3040    0.5810  117.4720 C.3   165  ASN165      0.1155
      6  CG        12.7970   -0.2470  116.2940 C.2   165  ASN165      0.2627
      7  OD1       12.5220    0.2880  115.2240 O.2   165  ASN165     -0.2716
      8  ND2       12.6590   -1.5500  116.4930 N.am  165  ASN165     -0.0877
      9  N         13.6100   -7.0430  115.5950 N.3   186  ASN186     -0.1225
     10  CA        12.7340   -8.0450  115.0090 C.3   186  ASN186      0.1785
     11  C         13.6950   -9.2180  114.8830 C.2   186  ASN186      0.2597
     12  O         14.8230   -9.1460  115.3780 O.2   186  ASN186     -0.2718
     13  CB        12.1940   -7.6450  113.6330 C.3   186  ASN186      0.1169
     14  CG        13.2850   -7.2760  112.6490 C.2   186  ASN186      0.2627
     15  OD1       14.4190   -7.7480  112.7360 O.2   186  ASN186     -0.2716
     16  ND2       12.9280   -6.4500  111.6760 N.am  186  ASN186     -0.0877
     17  N         13.2800  -10.2790  114.2110 N.am  187  GLU187     -0.1979
     18  CA        14.1380  -11.4510  114.0750 C.3   187  GLU187      0.1602
     19  C         15.4700  -11.2180  113.3680 C.2   187  GLU187      0.2287
     20  O         16.5140  -11.6360  113.8630 O.2   187  GLU187     -0.2864
     21  CB        13.3500  -12.5620  113.4000 C.3   187  GLU187      0.0415
     22  CG        12.2170  -13.0380  114.2700 C.3   187  GLU187      0.1163
     23  CD        11.1810  -13.8300  113.4950 C.2   187  GLU187      0.3649
     24  OE1       10.5640  -13.2460  112.5680 O.co2 187  GLU187     -0.2457
     25  OE2       10.9810  -15.0280  113.8080 O.co2 187  GLU187     -0.2457
     26  N         17.0540   -8.4500  113.0500 N.3   189  GLU189     -0.1245
     27  CA        17.8500   -7.5580  113.8770 C.3   189  GLU189      0.1567
     28  C         18.4220   -8.2910  115.0870 C.2   189  GLU189      0.2260
     29  O         19.5400   -8.0180  115.5040 O.2   189  GLU189     -0.2867
     30  CB        16.9810   -6.3630  114.2960 C.3   189  GLU189      0.0388
     31  CG        16.5700   -5.5410  113.0800 C.3   189  GLU189      0.1160
     32  CD        15.3660   -4.6460  113.2970 C.2   189  GLU189      0.3649
     33  OE1       14.8200   -4.6020  114.4130 O.co2 189  GLU189     -0.2457
     34  OE2       14.9580   -3.9810  112.3270 O.co2 189  GLU189     -0.2457
     35  N         10.3360   -9.0290  118.2680 N.3   222  THR222     -0.1218
     36  CA         9.0870   -9.1330  117.5270 C.3   222  THR222      0.1862
     37  C          9.1860  -10.2810  116.5400 C.2   222  THR222      0.2287
     38  O         10.1960  -10.4550  115.8660 O.2   222  THR222     -0.2866
     39  CB         8.7380   -7.8070  116.7960 C.3   222  THR222      0.1770
     40  OG1        9.7580   -7.4860  115.8430 O.3   222  THR222     -0.2211
     41  CG2        8.6010   -6.6770  117.7990 C.3   222  THR222      0.0375
     42  N          6.8770  -10.8830  113.9720 N.3   224  GLY224     -0.1210
     43  CA         5.9360  -10.6800  112.8840 C.3   224  GLY224      0.1956
     44  C          4.5300  -11.0220  113.3370 C.2   224  GLY224      0.2612
     45  O          4.0370  -10.4610  114.3120 O.2   224  GLY224     -0.2717
     46  N          3.8790  -11.9460  112.6410 N.am  225  SER225     -0.1952
     47  CA         2.5200  -12.3350  113.0090 C.3   225  SER225      0.1924
     48  C          2.4920  -13.2130  114.2620 C.2   225  SER225      0.2314
     49  O          1.4370  -13.4000  114.8740 O.2   225  SER225     -0.2863
     50  CB         1.8510  -13.0840  111.8560 C.3   225  SER225      0.2116
     51  OG         2.5580  -14.2820  111.5770 O.3   225  SER225     -0.2180
     52  N          3.6260  -12.4910  117.0430 N.3   227  GLY227     -0.1225
     53  CA         3.6830  -11.6750  118.2450 C.3   227  GLY227      0.1811
     54  C          5.0810  -11.2430  118.6570 C.2   227  GLY227      0.2280
     55  O          5.8520  -10.7240  117.8530 O.2   227  GLY227     -0.2866
     56  N          0.1950  -11.8380  119.0330 N.3   241  GLY241     -0.1210
     57  CA        -0.3970  -10.6000  118.5670 C.3   241  GLY241      0.1956
     58  C         -1.8200  -10.9190  118.1510 C.2   241  GLY241      0.2612
     59  O         -2.3760  -11.9310  118.5790 O.2   241  GLY241     -0.2717
     60  N         -2.4200  -10.0740  117.3220 N.am  242  PHE242     -0.1962
     61  CA        -3.7840  -10.3320  116.8780 C.3   242  PHE242      0.1771
     62  C         -3.8060  -10.7630  115.4240 C.2   242  PHE242      0.2619
     63  O         -2.8990  -10.4420  114.6590 O.2   242  PHE242     -0.2715
     64  CB        -4.6640   -9.0910  117.0710 C.3   242  PHE242      0.0574
     65  CG        -4.7470   -8.6260  118.4990 C.ar  242  PHE242     -0.0200
     66  CD1       -5.6800   -9.1880  119.3680 C.ar  242  PHE242     -0.0042
     67  CD2       -3.8560   -7.6680  118.9920 C.ar  242  PHE242     -0.0042
     68  CE1       -5.7290   -8.8040  120.7100 C.ar  242  PHE242     -0.0003
     69  CE2       -3.8940   -7.2760  120.3270 C.ar  242  PHE242     -0.0003
     70  CZ        -4.8360   -7.8450  121.1920 C.ar  242  PHE242     -0.0000
     71  N         -4.8460  -11.4930  115.0370 N.am  243  ARG243     -0.1963
     72  CA        -4.9480  -11.9600  113.6600 C.3   243  ARG243      0.1729
     73  C         -5.7970  -11.0230  112.8110 C.2   243  ARG243      0.2616
     74  O         -6.9350  -10.7060  113.1620 O.2   243  ARG243     -0.2715
     75  CB        -5.5270  -13.3720  113.6370 C.3   243  ARG243      0.0348
     76  CG        -4.6720  -14.3760  114.3960 C.3   243  ARG243      0.0492
     77  CD        -5.2700  -15.7710  114.3790 C.3   243  ARG243      0.2205
     78  NE        -4.4330  -16.7180  115.1110 N.pl3 243  ARG243     -0.0865
     79  CZ        -4.7190  -18.0070  115.2670 C.cat 243  ARG243      0.5346
     80  NH1       -5.8260  -18.5120  114.7430 N.pl3 243  ARG243      0.1354
     81  NH2       -3.8950  -18.7910  115.9500 N.pl3 243  ARG243      0.1354
     82  N         -5.2210  -10.5520  111.7110 N.am  244  VAL244     -0.1977
     83  CA        -5.9330   -9.6640  110.7960 C.3   244  VAL244      0.1596
     84  C         -5.4000   -9.8560  109.3940 C.2   244  VAL244      0.2287
     85  O         -4.3480  -10.4590  109.1940 O.2   244  VAL244     -0.2864
     86  CB        -5.7720   -8.1650  111.1630 C.3   244  VAL244      0.0276
     87  CG1       -6.3880   -7.8860  112.5230 C.3   244  VAL244      0.0022
     88  CG2       -4.2970   -7.7780  111.1320 C.3   244  VAL244      0.0022
     89  N         -3.5110   -8.6610  106.4870 N.3   246  ALA246     -0.1245
     90  CA        -2.4920   -7.6640  106.2030 C.3   246  ALA246      0.1562
     91  C         -2.5960   -7.1410  104.7710 C.2   246  ALA246      0.2260
     92  O         -2.9070   -7.8950  103.8390 O.2   246  ALA246     -0.2867
     93  CB        -1.1100   -8.2620  106.4360 C.3   246  ALA246      0.0290
     94  N          2.5330   -3.9710  105.7450 N.3   249  THR249     -0.1218
     95  CA         3.1530   -4.0360  107.0610 C.3   249  THR249      0.1862
     96  C          4.2870   -3.0250  107.2180 C.2   249  THR249      0.2287
     97  O          5.1520   -3.1830  108.0790 O.2   249  THR249     -0.2866
     98  CB         3.7110   -5.4520  107.3890 C.3   249  THR249      0.1770
     99  OG1        4.7110   -5.8110  106.4320 O.3   249  THR249     -0.2211
    100  CG2        2.5940   -6.4880  107.3850 C.3   249  THR249      0.0375
    101  N          5.9370   -0.0010  108.6760 N.3   251  ALA251     -0.1231
    102  CA         5.6460    0.7070  109.9280 C.3   251  ALA251      0.1694
    103  C          4.9190   -0.1200  110.9930 C.2   251  ALA251      0.2592
    104  O          4.4490    0.4340  111.9910 O.2   251  ALA251     -0.2718
    105  CB         4.8460    1.9910  109.6340 C.3   251  ALA251      0.0304
    106  N          4.8140   -1.4300  110.7880 N.am  252  ALA252     -0.1966
    107  CA         4.1560   -2.2850  111.7730 C.3   252  ALA252      0.1728
    108  C          4.9850   -2.2110  113.0430 C.2   252  ALA252      0.2616
    109  O          4.4590   -1.9580  114.1230 O.2   252  ALA252     -0.2715
    110  CB         4.0890   -3.7250  111.2730 C.3   252  ALA252      0.0334
    111  N          6.2890   -2.4150  112.8890 N.am  253  GLY253     -0.1955
    112  CA         7.2050   -2.3590  114.0150 C.3   253  GLY253      0.1869
    113  C          7.2680   -0.9870  114.6490 C.2   253  GLY253      0.2309
    114  O          7.3050   -0.8670  115.8770 O.2   253  GLY253     -0.2863
    115  N          4.3360   -0.4910  116.7570 N.3   256  PHE256     -0.1241
    116  CA         4.4980   -1.3040  117.9540 C.3   256  PHE256      0.1605
    117  C          5.3040   -0.5150  118.9880 C.2   256  PHE256      0.2264
    118  O          4.8870   -0.3740  120.1360 O.2   256  PHE256     -0.2867
    119  CB         5.2350   -2.6040  117.6210 C.3   256  PHE256      0.0534
    120  CG         5.4180   -3.5150  118.8010 C.ar  256  PHE256     -0.0203
    121  CD1        4.3360   -4.2280  119.3300 C.ar  256  PHE256     -0.0042
    122  CD2        6.6670   -3.6390  119.4090 C.ar  256  PHE256     -0.0042
    123  CE1        4.4950   -5.0510  120.4490 C.ar  256  PHE256     -0.0003
    124  CE2        6.8430   -4.4630  120.5350 C.ar  256  PHE256     -0.0003
    125  CZ         5.7510   -5.1720  121.0560 C.ar  256  PHE256     -0.0000
    126  N          0.3790   -4.4740  120.3410 N.3   278  HIS278     -0.1241
    127  CA        -0.0280   -5.4150  119.2920 C.3   278  HIS278      0.1621
    128  C         -1.3060   -4.9290  118.6130 C.2   278  HIS278      0.2264
    129  O         -1.4540   -5.0370  117.3980 O.2   278  HIS278     -0.2867
    130  CB        -0.3050   -6.8100  119.8600 C.3   278  HIS278      0.0745
    131  CG         0.9170   -7.6350  120.1060 C.ar  278  HIS278      0.0817
    132  ND1        1.9240   -7.7670  119.1750 N.ar  278  HIS278     -0.2268
    133  CD2        1.2260   -8.4860  121.1150 C.ar  278  HIS278      0.1154
    134  CE1        2.7990   -8.6630  119.5970 C.ar  278  HIS278      0.1986
    135  NE2        2.3980   -9.1140  120.7720 N.ar  278  HIS278     -0.2212
    136  N         -0.4940   -2.0370  116.3280 N.3   281  ALA281     -0.1231
    137  CA         0.2600   -2.5560  115.1920 C.3   281  ALA281      0.1694
    138  C         -0.6250   -3.3380  114.2280 C.2   281  ALA281      0.2591
    139  O         -0.4840   -3.2160  113.0080 O.2   281  ALA281     -0.2718
    140  CB         1.3990   -3.4280  115.6820 C.3   281  ALA281      0.0304
    141  N         -1.5300   -4.1400  114.7870 N.am  282  ALA282     -0.1980
    142  CA        -2.4500   -4.9550  113.9950 C.3   282  ALA282      0.1597
    143  C         -3.2590   -4.0530  113.0790 C.2   282  ALA282      0.2287
    144  O         -3.3600   -4.2930  111.8750 O.2   282  ALA282     -0.2864
    145  CB        -3.3850   -5.7410  114.9210 C.3   282  ALA282      0.0319
    146  N         -1.2310   -2.7060  110.2400 N.3   285  VAL285     -0.1245
    147  CA        -0.9470   -3.5940  109.1200 C.3   285  VAL285      0.1561
    148  C         -2.1260   -3.7510  108.1560 C.2   285  VAL285      0.2260
    149  O         -1.9530   -4.2780  107.0510 O.2   285  VAL285     -0.2867
    150  CB        -0.4920   -5.0010  109.5880 C.3   285  VAL285      0.0252
    151  CG1        0.7020   -4.8760  110.5180 C.3   285  VAL285      0.0019
    152  CG2       -1.6370   -5.7420  110.2590 C.3   285  VAL285      0.0019
@<TRIPOS>BOND
     1    92    91    2
     2    91    90    1
     3    94    95    1
     4    90    93    1
     5    90    89    1
     6    99    98    1
     7   149   148    2
     8    95    96    1
     9    95    98    1
    10    96    97    2
    11   100    98    1
    12   148   147    1
    13   101   102    1
    14   147   150    1
    15   147   146    1
    16    85    84    2
    17    84    83    1
    18   150   152    1
    19   150   151    1
    20   105   102    1
    21   102   103    1
    22   106   103   am
    23   106   107    1
    24    83    86    1
    25    83    82    1
    26   103   104    2
    27    88    86    1
    28    86    87    1
    29   110   107    1
    30    51    50    1
    31    16    14   am
    32    82    73   am
    33   107   108    1
    34    50    47    1
    35   144   143    2
    36    34    32   ar
    37    24    23   ar
    38    46    47    1
    39    46    44   am
    40    14    15    2
    41    14    13    1
    42    73    74    2
    43    73    72    1
    44    43    44    1
    45    43    42    1
    46   111   108   am
    47   111   112    1
    48   139   138    2
    49    47    48    1
    50   108   109    2
    51    26    27    1
    52   143   142    1
    53    31    32    1
    54    31    30    1
    55    32    33   ar
    56    44    45    2
    57    19    20    2
    58    19    18    1
    59    21    18    1
    60    21    22    1
    61    23    25   ar
    62    23    22    1
    63    13    10    1
    64    75    72    1
    65    75    76    1
    66    72    71    1
    67    27    30    1
    68    27    28    1
    69   142   141    1
    70   142   145    1
    71   112   113    1
    72    18    17    1
    73    17    11   am
    74   138   141   am
    75   138   137    1
    76    48    49    2
    77    77    76    1
    78    77    78    1
    79   113   114    2
    80    63    62    2
    81    80    79    1
    82    11    10    1
    83    11    12    2
    84    10     9    1
    85    71    62   am
    86    28    29    2
    87    78    79    2
    88   137   140    1
    89   137   136    1
    90     7     6    2
    91    79    81    1
    92    62    61    1
    93    40    39    1
    94    38    37    2
    95     6     8   am
    96     6     5    1
    97     4     3    2
    98    37    36    1
    99   115   116    1
   100    39    36    1
   101    39    41    1
   102    61    64    1
   103    61    60    1
   104    52    53    1
   105    64    65    1
   106     3     2    1
   107    60    58   am
   108   129   128    2
   109     5     2    1
   110    36    35    1
   111   119   116    1
   112   119   120    1
   113    55    54    2
   114   116   117    1
   115    58    57    1
   116    58    59    2
   117     2     1    1
   118    53    54    1
   119    65    67   ar
   120    65    66   ar
   121    57    56    1
   122   128   127    1
   123   120   121   ar
   124   120   122   ar
   125   117   118    2
   126    67    69   ar
   127   132   134   ar
   128   132   131   ar
   129   127   130    1
   130   127   126    1
   131   121   123   ar
   132    66    68   ar
   133   122   124   ar
   134   134   135   ar
   135   130   131    1
   136   131   133   ar
   137    69    70   ar
   138   123   125   ar
   139   124   125   ar
   140    68    70   ar
   141   135   133   ar
