@<TRIPOS>MOLECULE
tmp/1rkgA00.pdb
 216 205 0 0 0
SMALL
GASTEIGER

@<TRIPOS>ATOM
      1  N         59.5070    6.5460   10.4220 N.3    21  TYR21      -0.1241
      2  CA        59.3510    7.3590    9.2240 C.3    21  TYR21       0.1605
      3  C         59.5320    8.8400    9.5770 C.2    21  TYR21       0.2264
      4  O         58.6720    9.4580   10.2130 O.2    21  TYR21      -0.2867
      5  CB        57.9820    7.1130    8.5690 C.3    21  TYR21       0.0534
      6  CG        57.8880    7.7020    7.1800 C.ar   21  TYR21      -0.0201
      7  CD1       57.6890    9.0860    6.9850 C.ar   21  TYR21      -0.0009
      8  CD2       57.9920    6.8970    6.0720 C.ar   21  TYR21      -0.0009
      9  CE1       57.6080    9.6320    5.7040 C.ar   21  TYR21       0.0417
     10  CE2       57.9290    7.4440    4.7780 C.ar   21  TYR21       0.0417
     11  CZ        57.7390    8.7950    4.6060 C.ar   21  TYR21       0.1957
     12  OH        57.6840    9.2840    3.3210 O.3    21  TYR21      -0.2866
     13  N         63.0740   13.5960    6.3120 N.3    25  TYR25      -0.1241
     14  CA        64.0090   12.8900    5.4400 C.3    25  TYR25       0.1605
     15  C         65.4820   13.2740    5.7290 C.2    25  TYR25       0.2264
     16  O         66.3180   13.3100    4.8250 O.2    25  TYR25      -0.2867
     17  CB        63.6070   13.1250    3.9620 C.3    25  TYR25       0.0534
     18  CG        62.1510   12.7750    3.7090 C.ar   25  TYR25      -0.0201
     19  CD1       61.2110   13.7680    3.4610 C.ar   25  TYR25      -0.0009
     20  CD2       61.7040   11.4350    3.7880 C.ar   25  TYR25      -0.0009
     21  CE1       59.8700   13.4540    3.2520 C.ar   25  TYR25       0.0417
     22  CE2       60.3560   11.1150    3.6130 C.ar   25  TYR25       0.0417
     23  CZ        59.4450   12.1220    3.3340 C.ar   25  TYR25       0.1957
     24  OH        58.1110   11.8160    3.1330 O.3    25  TYR25      -0.2866
     25  N         68.6510   11.1780    4.6520 N.3    28  PHE28      -0.1241
     26  CA        68.9820   11.0690    3.2170 C.3    28  PHE28       0.1605
     27  C         70.3480   11.6480    2.8650 C.2    28  PHE28       0.2264
     28  O         70.9590   11.2270    1.8670 O.2    28  PHE28      -0.2867
     29  CB        67.8880   11.6970    2.3180 C.3    28  PHE28       0.0534
     30  CG        66.5940   10.8820    2.1850 C.ar   28  PHE28      -0.0203
     31  CD1       66.1130   10.0820    3.2230 C.ar   28  PHE28      -0.0042
     32  CD2       65.8560   10.9290    0.9920 C.ar   28  PHE28      -0.0042
     33  CE1       64.9290    9.3360    3.0960 C.ar   28  PHE28      -0.0003
     34  CE2       64.6520   10.1960    0.8490 C.ar   28  PHE28      -0.0003
     35  CZ        64.1770    9.3960    1.9110 C.ar   28  PHE28      -0.0000
     36  N         71.4830    4.5930   -9.4830 N.3    43  LEU43      -0.1245
     37  CA        71.5300    3.3300   -8.7120 C.3    43  LEU43       0.1561
     38  C         72.1340    3.4140   -7.2850 C.2    43  LEU43       0.2260
     39  O         71.5170    2.8940   -6.3280 O.2    43  LEU43      -0.2867
     40  CB        72.1670    2.1750   -9.5100 C.3    43  LEU43       0.0270
     41  CG        72.1030    0.7990   -8.7950 C.3    43  LEU43       0.0019
     42  CD1       70.6880    0.4170   -8.3350 C.3    43  LEU43       0.0001
     43  CD2       72.7070   -0.2860   -9.6680 C.3    43  LEU43       0.0001
     44  N         69.6330    5.3840   -4.9990 N.3    46  LEU46      -0.1231
     45  CA        68.3660    4.7040   -4.8110 C.3    46  LEU46       0.1693
     46  C         68.5440    3.3190   -4.1540 C.2    46  LEU46       0.2591
     47  O         67.6630    2.8670   -3.3910 O.2    46  LEU46      -0.2718
     48  CB        67.5840    4.6400   -6.1390 C.3    46  LEU46       0.0284
     49  CG        67.0710    5.9960   -6.6620 C.3    46  LEU46       0.0019
     50  CD1       66.2120    5.6930   -7.8870 C.3    46  LEU46       0.0001
     51  CD2       66.2610    6.7910   -5.5790 C.3    46  LEU46       0.0001
     52  N         69.6820    2.6640   -4.3960 N.am   47  ALA47      -0.1980
     53  CA        70.0070    1.4290   -3.6380 C.3    47  ALA47       0.1597
     54  C         70.0900    1.7720   -2.1400 C.2    47  ALA47       0.2287
     55  O         69.5620    1.0640   -1.2990 O.2    47  ALA47      -0.2864
     56  CB        71.3040    0.8500   -4.0750 C.3    47  ALA47       0.0319
     57  N         68.6610    4.2590   -0.6000 N.3    49  LEU49      -0.1231
     58  CA        67.3370    4.6460   -0.1360 C.3    49  LEU49       0.1693
     59  C         66.5250    3.3650    0.1040 C.2    49  LEU49       0.2591
     60  O         65.8370    3.2220    1.1050 O.2    49  LEU49      -0.2718
     61  CB        66.6050    5.5180   -1.1730 C.3    49  LEU49       0.0284
     62  CG        65.1290    5.8940   -0.9170 C.3    49  LEU49       0.0019
     63  CD1       64.8670    6.4750    0.4900 C.3    49  LEU49       0.0001
     64  CD2       64.5900    6.8370   -2.0270 C.3    49  LEU49       0.0001
     65  N         66.6200    2.4350   -0.8280 N.am   50  VAL50      -0.1980
     66  CA        65.8880    1.1660   -0.6230 C.3    50  VAL50       0.1595
     67  C         66.4000    0.4400    0.6560 C.2    50  VAL50       0.2287
     68  O         65.5970   -0.0580    1.4650 O.2    50  VAL50      -0.2864
     69  CB        65.9560    0.2940   -1.8840 C.3    50  VAL50       0.0276
     70  CG1       65.5420   -1.1980   -1.5730 C.3    50  VAL50       0.0022
     71  CG2       65.1130    0.9430   -3.0320 C.3    50  VAL50       0.0022
     72  N         68.0560    1.5770    3.3170 N.3    52  TYR52      -0.1227
     73  CA        67.5770    2.3390    4.4840 C.3    52  TYR52       0.1736
     74  C         66.1060    2.0170    4.7760 C.2    52  TYR52       0.2596
     75  O         65.7420    1.7590    5.9210 O.2    52  TYR52      -0.2718
     76  CB        67.7270    3.8150    4.1930 C.3    52  TYR52       0.0548
     77  CG        67.1310    4.7580    5.2220 C.ar   52  TYR52      -0.0200
     78  CD1       67.8880    5.1560    6.3360 C.ar   52  TYR52      -0.0009
     79  CD2       65.8580    5.3060    5.0480 C.ar   52  TYR52      -0.0009
     80  CE1       67.3670    6.0790    7.2810 C.ar   52  TYR52       0.0417
     81  CE2       65.3330    6.2310    5.9830 C.ar   52  TYR52       0.0417
     82  CZ        66.0980    6.5970    7.0950 C.ar   52  TYR52       0.1957
     83  OH        65.5970    7.5110    8.0070 O.3    52  TYR52      -0.2866
     84  N         65.2900    1.9710    3.7270 N.am   53  SER53      -0.1952
     85  CA        63.8720    1.7850    3.8830 C.3    53  SER53       0.1924
     86  C         63.5650    0.3750    4.3790 C.2    53  SER53       0.2314
     87  O         62.6580    0.2030    5.1480 O.2    53  SER53      -0.2863
     88  CB        63.1100    2.0460    2.5560 C.3    53  SER53       0.2116
     89  OG        63.2180    3.4590    2.2470 O.3    53  SER53      -0.2180
     90  N         59.6090   -4.9330   -0.3510 N.3    84  ILE84      -0.1245
     91  CA        59.4500   -3.9930   -1.4810 C.3    84  ILE84       0.1561
     92  C         58.0250   -3.3550   -1.5360 C.2    84  ILE84       0.2260
     93  O         57.8810   -2.1950   -1.8580 O.2    84  ILE84      -0.2867
     94  CB        59.8440   -4.6440   -2.8580 C.3    84  ILE84       0.0252
     95  CG1       60.0880   -3.5610   -3.9220 C.3    84  ILE84       0.0019
     96  CG2       58.7440   -5.6550   -3.3170 C.3    84  ILE84       0.0019
     97  CD1       61.1040   -2.5190   -3.5710 C.3    84  ILE84       0.0001
     98  N         57.7610   -0.7000    1.1280 N.3    87  ILE87      -0.1231
     99  CA        58.4900    0.5050    0.6670 C.3    87  ILE87       0.1692
    100  C         57.5890    1.2730   -0.3050 C.2    87  ILE87       0.2591
    101  O         57.4600    2.5370   -0.2170 O.2    87  ILE87      -0.2718
    102  CB        59.8550    0.1200    0.0420 C.3    87  ILE87       0.0266
    103  CG1       60.7910   -0.4410    1.1180 C.3    87  ILE87       0.0019
    104  CG2       60.5220    1.3330   -0.6580 C.3    87  ILE87       0.0020
    105  CD1       62.1010   -1.1050    0.5500 C.3    87  ILE87       0.0001
    106  N         56.9650    0.5430   -1.2220 N.am   88  MET88      -0.1979
    107  CA        56.0480    1.1800   -2.1850 C.3    88  MET88       0.1605
    108  C         54.8860    1.8790   -1.4660 C.2    88  MET88       0.2287
    109  O         54.5340    3.0110   -1.8080 O.2    88  MET88      -0.2864
    110  CB        55.5350    0.1520   -3.2000 C.3    88  MET88       0.0413
    111  CG        56.6300   -0.1620   -4.2380 C.3    88  MET88       0.0598
    112  SD        56.1460   -1.5880   -5.2720 S.3    88  MET88      -0.1393
    113  CE        57.6490   -1.6790   -6.2850 C.3    88  MET88       0.0692
    114  N         54.7480    2.8560    1.8140 N.3    90  ARG90      -0.1231
    115  CA        55.1520    3.9310    2.7280 C.3    90  ARG90       0.1694
    116  C         55.6110    5.1220    1.9330 C.2    90  ARG90       0.2592
    117  O         55.5220    6.2620    2.4320 O.2    90  ARG90      -0.2718
    118  CB        56.2530    3.4780    3.7130 C.3    90  ARG90       0.0321
    119  CG        57.6690    3.3100    3.1160 C.3    90  ARG90       0.0489
    120  CD        58.5750    2.3410    3.9030 C.3    90  ARG90       0.2205
    121  NE        58.6040    2.6390    5.3480 N.pl3  90  ARG90      -0.0865
    122  CZ        59.4490    3.4770    5.9150 C.cat  90  ARG90       0.5346
    123  NH1       60.3590    4.1330    5.1680 N.pl3  90  ARG90       0.1354
    124  NH2       59.3650    3.7020    7.2320 N.pl3  90  ARG90       0.1354
    125  N         56.0960    4.8710    0.7080 N.am   91  SER91      -0.1952
    126  CA        56.5580    5.9540   -0.1720 C.3    91  SER91       0.1924
    127  C         55.4120    6.8760   -0.6100 C.2    91  SER91       0.2314
    128  O         55.6220    8.0090   -1.1050 O.2    91  SER91      -0.2863
    129  CB        57.3220    5.3980   -1.3920 C.3    91  SER91       0.2116
    130  OG        56.4300    4.9100   -2.3890 O.3    91  SER91      -0.2180
    131  N         55.4710   10.4610    0.6430 N.3    94  SER94      -0.1217
    132  CA        56.2760   11.4730   -0.0850 C.3    94  SER94       0.1889
    133  C         55.7850   11.7690   -1.5000 C.2    94  SER94       0.2288
    134  O         56.1570   12.7980   -2.0920 O.2    94  SER94      -0.2866
    135  CB        57.7720   11.1290   -0.1230 C.3    94  SER94       0.2089
    136  OG        58.0550    9.9980   -0.9440 O.3    94  SER94      -0.2183
    137  N         58.2750   11.6480   -6.1620 N.3   102  TRP102     -0.1241
    138  CA        58.4160   11.4780   -4.7170 C.3   102  TRP102      0.1605
    139  C         59.2660   12.6060   -4.1690 C.2   102  TRP102      0.2264
    140  O         60.4750   12.6560   -4.3930 O.2   102  TRP102     -0.2867
    141  CB        59.0700   10.1140   -4.3870 C.3   102  TRP102      0.0550
    142  CG        58.2210    8.8890   -4.6920 C.ar  102  TRP102      0.0003
    143  CD1       57.4380    8.1850   -3.7980 C.ar  102  TRP102      0.0946
    144  CD2       58.1510    8.1620   -5.9330 C.ar  102  TRP102      0.0152
    145  NE1       56.8500    7.1000   -4.4180 N.ar  102  TRP102     -0.2442
    146  CE2       57.2880    7.0470   -5.7230 C.ar  102  TRP102      0.0810
    147  CE3       58.7370    8.3320   -7.2100 C.ar  102  TRP102      0.0012
    148  CZ2       56.9910    6.1250   -6.7330 C.ar  102  TRP102      0.0191
    149  CZ3       58.4400    7.4060   -8.2270 C.ar  102  TRP102      0.0001
    150  CH2       57.5690    6.3150   -7.9820 C.ar  102  TRP102      0.0015
    151  N         60.9720   14.3390   -1.3140 N.3   104  CYS104     -0.1235
    152  CA        61.5470   14.1690    0.0080 C.3   104  CYS104      0.1677
    153  C         62.3070   15.3910    0.5130 C.2   104  CYS104      0.2270
    154  O         63.3020   15.2450    1.2130 O.2   104  CYS104     -0.2867
    155  CB        62.4720   12.9510    0.0350 C.3   104  CYS104      0.0956
    156  SG        61.5450   11.4170   -0.2690 S.3   104  CYS104     -0.0801
    157  N         62.2830   12.6180   -6.6080 N.3   111  TYR111     -0.1241
    158  CA        62.5000   11.5310   -7.5940 C.3   111  TYR111      0.1605
    159  C         61.3530   11.4010   -8.5710 C.2   111  TYR111      0.2264
    160  O         60.2370   11.1480   -8.1680 O.2   111  TYR111     -0.2867
    161  CB        62.7310   10.1620   -6.8920 C.3   111  TYR111      0.0534
    162  CG        63.6460   10.2800   -5.7040 C.ar  111  TYR111     -0.0201
    163  CD1       63.1350   10.2700   -4.4050 C.ar  111  TYR111     -0.0009
    164  CD2       65.0110   10.5090   -5.8820 C.ar  111  TYR111     -0.0009
    165  CE1       63.9880   10.4400   -3.2910 C.ar  111  TYR111      0.0417
    166  CE2       65.8700   10.6660   -4.7890 C.ar  111  TYR111      0.0417
    167  CZ        65.3480   10.6240   -3.5040 C.ar  111  TYR111      0.1957
    168  OH        66.2030   10.7980   -2.4410 O.3   111  TYR111     -0.2866
    169  N         64.0830    7.3070  -11.5550 N.3   116  VAL116     -0.1245
    170  CA        63.8970    5.8800  -11.2780 C.3   116  VAL116      0.1561
    171  C         64.4060    5.0400  -12.4450 C.2   116  VAL116      0.2260
    172  O         65.0050    3.9730  -12.2420 O.2   116  VAL116     -0.2867
    173  CB        62.4430    5.5630  -10.8810 C.3   116  VAL116      0.0252
    174  CG1       62.2950    4.0330  -10.5090 C.3   116  VAL116      0.0019
    175  CG2       62.0370    6.4720   -9.7120 C.3   116  VAL116      0.0019
    176  N         68.1100    4.0030  -12.2970 N.3   119  ALA119     -0.1245
    177  CA        68.5980    3.0000  -11.3470 C.3   119  ALA119      0.1562
    178  C         68.4750    1.6110  -11.9210 C.2   119  ALA119      0.2260
    179  O         68.6340    0.6180  -11.1990 O.2   119  ALA119     -0.2867
    180  CB        67.8640    3.0920  -10.0160 C.3   119  ALA119      0.0290
    181  N         65.6830    0.3540  -13.6680 N.3   121  HIS121     -0.1241
    182  CA        64.3470   -0.1840  -13.8440 C.3   121  HIS121      0.1621
    183  C         63.7180    0.3870  -15.1020 C.2   121  HIS121      0.2264
    184  O         64.0780    1.4760  -15.5400 O.2   121  HIS121     -0.2867
    185  CB        63.5090    0.0560  -12.5900 C.3   121  HIS121      0.0745
    186  CG        63.9240   -0.8040  -11.4450 C.ar  121  HIS121      0.0817
    187  ND1       63.6890   -2.1640  -11.4100 N.ar  121  HIS121     -0.2268
    188  CD2       64.5940   -0.5090  -10.3040 C.ar  121  HIS121      0.1154
    189  CE1       64.1840   -2.6660  -10.2920 C.ar  121  HIS121      0.1986
    190  NE2       64.7470   -1.6830   -9.6090 N.ar  121  HIS121     -0.2212
    191  N         57.8250   -1.6530  -14.9010 N.3   125  LEU125     -0.1245
    192  CA        57.6350   -1.4580  -13.4510 C.3   125  LEU125      0.1561
    193  C         57.1700   -0.0460  -13.1490 C.2   125  LEU125      0.2260
    194  O         56.2220    0.1610  -12.3830 O.2   125  LEU125     -0.2867
    195  CB        58.9420   -1.6930  -12.6930 C.3   125  LEU125      0.0270
    196  CG        58.8450   -1.5770  -11.1500 C.3   125  LEU125      0.0019
    197  CD1       57.7760   -2.5270  -10.6090 C.3   125  LEU125      0.0001
    198  CD2       60.2150   -1.8760  -10.4830 C.3   125  LEU125      0.0001
    199  N         53.8390    1.4240  -11.2150 N.3   129  LEU129     -0.1245
    200  CA        54.1740    1.9120   -9.8730 C.3   129  LEU129      0.1561
    201  C         53.5810    3.3100   -9.6750 C.2   129  LEU129      0.2260
    202  O         53.0350    3.6270   -8.6330 O.2   129  LEU129     -0.2867
    203  CB        55.6750    1.9340   -9.6540 C.3   129  LEU129      0.0270
    204  CG        56.1800    2.6160   -8.3600 C.3   129  LEU129      0.0019
    205  CD1       55.5830    1.9580   -7.0920 C.3   129  LEU129      0.0001
    206  CD2       57.7020    2.5850   -8.3150 C.3   129  LEU129      0.0001
    207  N         59.1320   -6.1720   -9.9580 N.3   213  HIS213     -0.1241
    208  CA        60.3730   -5.7060   -9.3390 C.3   213  HIS213      0.1621
    209  C         61.3860   -6.8370   -9.2020 C.2   213  HIS213      0.2264
    210  O         62.5710   -6.6560   -9.4390 O.2   213  HIS213     -0.2867
    211  CB        60.1490   -5.0910   -7.9560 C.3   213  HIS213      0.0745
    212  CG        61.4340   -4.7860   -7.2490 C.ar  213  HIS213      0.0817
    213  ND1       61.9930   -5.6320   -6.3130 N.ar  213  HIS213     -0.2268
    214  CD2       62.2980   -3.7520   -7.3860 C.ar  213  HIS213      0.1154
    215  CE1       63.1370   -5.1240   -5.8910 C.ar  213  HIS213      0.1986
    216  NE2       63.3430   -3.9790   -6.5200 N.ar  213  HIS213     -0.2212
@<TRIPOS>BOND
     1   184   183    2
     2   183   182    1
     3   191   192    1
     4   182   181    1
     5   182   185    1
     6   192   193    1
     7   192   195    1
     8   193   194    2
     9   195   196    1
    10   185   186    1
    11   171   172    2
    12   171   170    1
    13   176   177    1
    14   178   177    1
    15   178   179    2
    16   169   170    1
    17   186   187   ar
    18   186   188   ar
    19   187   189   ar
    20   177   180    1
    21   170   173    1
    22   199   200    1
    23   196   197    1
    24   196   198    1
    25   173   174    1
    26   173   175    1
    27   188   190   ar
    28   189   190   ar
    29   207   208    1
    30   200   201    1
    31   200   203    1
    32   201   202    2
    33    43    41    1
    34   203   204    1
    35    40    41    1
    36    40    37    1
    37    36    37    1
    38   210   209    2
    39   208   209    1
    40   208   211    1
    41    41    42    1
    42    37    38    1
    43   159   160    2
    44   159   158    1
    45   204   206    1
    46   204   205    1
    47   149   150   ar
    48   149   147   ar
    49   150   148   ar
    50   211   212    1
    51    50    49    1
    52   158   161    1
    53   158   157    1
    54   214   212   ar
    55   214   216   ar
    56    38    39    2
    57   212   213   ar
    58   147   144   ar
    59   161   162    1
    60   148   146   ar
    61    49    48    1
    62    49    51    1
    63   216   215   ar
    64   213   215   ar
    65   113   112    1
    66   137   138    1
    67    48    45    1
    68   144   146   ar
    69   144   142   ar
    70   164   162   ar
    71   164   166   ar
    72   146   145   ar
    73   162   163   ar
    74   112   111    1
    75    44    45    1
    76    45    46    1
    77   166   167   ar
    78   138   141    1
    79   138   139    1
    80   142   141    1
    81   142   143   ar
    82   145   143   ar
    83   163   165   ar
    84    52    46   am
    85    52    53    1
    86   140   139    2
    87   111   110    1
    88    46    47    2
    89    56    53    1
    90    95    97    1
    91    95    94    1
    92    53    54    1
    93   167   165   ar
    94   167   168    1
    95    96    94    1
    96   110   107    1
    97    71    69    1
    98    94    91    1
    99   130   129    1
   100   107   108    1
   101   107   106    1
   102    54    55    2
   103   134   133    2
   104    64    62    1
   105    69    70    1
   106    69    66    1
   107    93    92    2
   108   109   108    2
   109    92    91    1
   110   133   132    1
   111    91    90    1
   112   129   126    1
   113   151   152    1
   114   106   100   am
   115    61    62    1
   116    61    58    1
   117   128   127    2
   118   136   135    1
   119    62    63    1
   120    65    66    1
   121    65    59   am
   122   104   102    1
   123    66    67    1
   124   127   126    1
   125    57    58    1
   126   100   101    2
   127   100    99    1
   128   156   155    1
   129   126   125    1
   130    58    59    1
   131   135   132    1
   132   132   131    1
   133   152   155    1
   134   152   153    1
   135   102    99    1
   136   102   103    1
   137    59    60    2
   138   153   154    2
   139   105   103    1
   140    67    68    2
   141    99    98    1
   142   125   116   am
   143    34    32   ar
   144    34    35   ar
   145    32    30   ar
   146   114   115    1
   147    28    27    2
   148    35    33   ar
   149   116   117    2
   150   116   115    1
   151    30    29    1
   152    30    31   ar
   153    89    88    1
   154    29    26    1
   155    88    85    1
   156   115   118    1
   157    27    26    1
   158    33    31   ar
   159   119   118    1
   160   119   120    1
   161    24    23    1
   162    26    25    1
   163    21    23   ar
   164    21    19   ar
   165    72    73    1
   166    12    11    1
   167    23    22   ar
   168    19    18   ar
   169    22    20   ar
   170    18    20   ar
   171    18    17    1
   172    84    85    1
   173    84    74   am
   174    85    86    1
   175   120   121    1
   176    17    14    1
   177    76    73    1
   178    76    77    1
   179    86    87    2
   180    73    74    1
   181    11    10   ar
   182    11     9   ar
   183    74    75    2
   184    10     8   ar
   185    16    15    2
   186    79    77   ar
   187    79    81   ar
   188   123   122    1
   189    77    78   ar
   190   121   122    2
   191    14    15    1
   192    14    13    1
   193     9     7   ar
   194   122   124    1
   195    81    82   ar
   196     8     6   ar
   197    78    80   ar
   198     7     6   ar
   199    82    80   ar
   200    82    83    1
   201     6     5    1
   202     5     2    1
   203     2     3    1
   204     2     1    1
   205     3     4    2
