@<TRIPOS>MOLECULE
tmp/1rkiB00.pdb
 81 77 0 0 0
SMALL
GASTEIGER

@<TRIPOS>ATOM
      1  N         24.1020   13.6490   -1.0460 N.3    33  ILE33      -0.1245
      2  CA        23.0970   13.6750   -2.0870 C.3    33  ILE33       0.1561
      3  C         21.8440   14.3060   -1.5660 C.2    33  ILE33       0.2260
      4  O         21.4830   14.0770   -0.4200 O.2    33  ILE33      -0.2867
      5  CB        22.7310   12.1700   -2.4440 C.3    33  ILE33       0.0252
      6  CG1       23.9850   11.4460   -2.9300 C.3    33  ILE33       0.0019
      7  CG2       21.5410   12.1210   -3.3760 C.3    33  ILE33       0.0019
      8  CD1       24.5340   11.9100   -4.2210 C.3    33  ILE33       0.0001
      9  N         17.7630   15.6000   -2.8920 N.3    35  LYS35      -0.1231
     10  CA        16.7050   15.4940   -3.9320 C.3    35  LYS35       0.1678
     11  C         15.3340   15.9480   -3.3830 C.2    35  LYS35       0.2434
     12  O         14.8130   15.3010   -2.4610 O.2    35  LYS35      -0.2733
     13  CB        16.5080   14.0370   -4.3880 C.3    35  LYS35       0.0284
     14  CG        17.7150   13.3250   -5.0360 C.3    35  LYS35       0.0035
     15  CD        17.3340   12.0980   -5.8190 C.3    35  LYS35       0.0206
     16  CE        16.9210   10.9670   -4.8980 C.3    35  LYS35       0.1093
     17  NZ        16.6470    9.7710   -5.7400 N.3    35  LYS35      -0.1314
     18  N         14.7200   16.9990   -3.9300 N.am   36  PRO36      -0.2718
     19  CA        13.3160   17.2340   -3.5800 C.3    36  PRO36       0.1535
     20  C         12.4430   16.0580   -4.0240 C.2    36  PRO36       0.2598
     21  O         12.6020   15.4460   -5.1280 O.2    36  PRO36      -0.2715
     22  CB        12.9600   18.5410   -4.3020 C.3    36  PRO36       0.0310
     23  CG        14.2210   19.1090   -4.8690 C.3    36  PRO36       0.0237
     24  CD        15.2960   18.0390   -4.7930 C.3    36  PRO36       0.0939
     25  N         11.5310   15.6540   -3.1480 N.am   37  ILE37      -0.1978
     26  CA        10.6860   14.5320   -3.4880 C.3    37  ILE37       0.1596
     27  C          9.1950   14.9170   -3.5280 C.2    37  ILE37       0.2287
     28  O          8.3690   14.1700   -4.0610 O.2    37  ILE37      -0.2864
     29  CB        11.0180   13.2810   -2.6350 C.3    37  ILE37       0.0276
     30  CG1       10.9730   13.5430   -1.1650 C.3    37  ILE37       0.0022
     31  CG2       12.4540   12.7150   -2.9820 C.3    37  ILE37       0.0022
     32  CD1       11.1920   12.2840   -0.3470 C.3    37  ILE37       0.0001
     33  N         14.8580   14.8000    0.3870 N.3    43  TYR43      -0.1241
     34  CA        15.7480   13.7170    0.7660 C.3    43  TYR43       0.1605
     35  C         17.1930   14.2000    0.8440 C.2    43  TYR43       0.2264
     36  O         17.6840   14.8720   -0.0800 O.2    43  TYR43      -0.2867
     37  CB        15.6650   12.5820   -0.2860 C.3    43  TYR43       0.0534
     38  CG        16.7630   11.5370   -0.1850 C.ar   43  TYR43      -0.0201
     39  CD1       16.7070   10.5060    0.7850 C.ar   43  TYR43      -0.0009
     40  CD2       17.8320   11.5090   -1.0500 C.ar   43  TYR43      -0.0009
     41  CE1       17.7220    9.5700    0.9100 C.ar   43  TYR43       0.0417
     42  CE2       18.7860   10.5440   -0.9760 C.ar   43  TYR43       0.0417
     43  CZ        18.7520    9.5620   -0.0140 C.ar   43  TYR43       0.1957
     44  OH        19.7050    8.5390    0.0080 O.3    43  TYR43      -0.2866
     45  N         18.9070    2.6530    2.3490 N.3    73  VAL73      -0.1245
     46  CA        18.0300    2.7020    1.1690 C.3    73  VAL73       0.1561
     47  C         18.3450    1.5130    0.2430 C.2    73  VAL73       0.2260
     48  O         19.5170    1.1140    0.0860 O.2    73  VAL73      -0.2867
     49  CB        18.1100    4.0530    0.4050 C.3    73  VAL73       0.0252
     50  CG1       17.3340    5.1010    1.1670 C.3    73  VAL73       0.0019
     51  CG2       19.6170    4.4360    0.0430 C.3    73  VAL73       0.0019
     52  N          9.1960    4.8430   -0.6540 N.3    88  ILE88      -0.1231
     53  CA         8.9620    6.1860   -1.1770 C.3    88  ILE88       0.1692
     54  C          9.4930    6.2840   -2.6140 C.2    88  ILE88       0.2592
     55  O         10.6780    6.1900   -2.8170 O.2    88  ILE88      -0.2718
     56  CB         9.6250    7.3500   -0.3140 C.3    88  ILE88       0.0266
     57  CG1        9.2740    7.1300    1.1400 C.3    88  ILE88       0.0019
     58  CG2        8.9940    8.7170   -0.8110 C.3    88  ILE88       0.0020
     59  CD1        9.8930    8.1210    2.1460 C.3    88  ILE88       0.0001
     60  N          8.6340    6.5270   -3.5920 N.am   89  GLY89      -0.1957
     61  CA         9.1150    6.8160   -4.9690 C.3    89  GLY89       0.1869
     62  C          9.8700    5.6570   -5.6150 C.2    89  GLY89       0.2309
     63  O         10.7710    5.9020   -6.4620 O.2    89  GLY89      -0.2863
     64  N         11.7630    3.4610   -3.8500 N.3    91  VAL91      -0.1245
     65  CA        12.9400    3.2720   -2.9990 C.3    91  VAL91       0.1561
     66  C         12.4660    2.8080   -1.6140 C.2    91  VAL91       0.2260
     67  O         11.6110    3.4180   -0.9640 O.2    91  VAL91      -0.2867
     68  CB        13.7910    4.5660   -2.8860 C.3    91  VAL91       0.0252
     69  CG1       15.0020    4.2860   -2.0160 C.3    91  VAL91       0.0019
     70  CG2       14.2520    4.9370   -4.2710 C.3    91  VAL91       0.0019
     71  N         13.1660    2.4670    2.1910 N.3    93  PHE93      -0.1241
     72  CA        13.8970    3.0910    3.3290 C.3    93  PHE93       0.1605
     73  C         13.7600    2.1260    4.5520 C.2    93  PHE93       0.2264
     74  O         12.6720    1.6890    4.8120 O.2    93  PHE93      -0.2867
     75  CB        13.3290    4.4420    3.6910 C.3    93  PHE93       0.0534
     76  CG        13.6830    5.5740    2.6990 C.ar   93  PHE93      -0.0203
     77  CD1       13.0470    5.6270    1.4340 C.ar   93  PHE93      -0.0042
     78  CD2       14.5520    6.5710    3.0360 C.ar   93  PHE93      -0.0042
     79  CE1       13.3570    6.6170    0.5260 C.ar   93  PHE93      -0.0003
     80  CE2       14.8600    7.5780    2.1750 C.ar   93  PHE93      -0.0003
     81  CZ        14.2500    7.6370    0.9120 C.ar   93  PHE93      -0.0000
@<TRIPOS>BOND
     1    63    62    2
     2    15    14    1
     3    15    16    1
     4    17    16    1
     5    62    61    1
     6    21    20    2
     7    14    13    1
     8    61    60    1
     9    23    24    1
    10    23    22    1
    11    24    18    1
    12    13    10    1
    13    22    19    1
    14    70    68    1
    15     8     6    1
    16    28    27    2
    17    20    19    1
    18    20    25   am
    19    10    11    1
    20    10     9    1
    21    18    19    1
    22    18    11   am
    23    64    65    1
    24    60    54   am
    25    27    26    1
    26    26    25    1
    27    26    29    1
    28    11    12    2
    29     7     5    1
    30    65    68    1
    31    65    66    1
    32    31    29    1
    33     6     5    1
    34    68    69    1
    35    55    54    2
    36    29    30    1
    37    54    53    1
    38     5     2    1
    39     2     3    1
    40     2     1    1
    41    66    67    2
    42     3     4    2
    43    53    52    1
    44    53    56    1
    45    30    32    1
    46    40    42   ar
    47    40    38   ar
    48    42    43   ar
    49    58    56    1
    50    56    57    1
    51    37    38    1
    52    37    34    1
    53    38    39   ar
    54    36    35    2
    55    43    44    1
    56    43    41   ar
    57    51    49    1
    58    48    47    2
    59    47    46    1
    60    33    34    1
    61    49    50    1
    62    49    46    1
    63    79    81   ar
    64    79    77   ar
    65    34    35    1
    66    39    41   ar
    67    81    80   ar
    68    57    59    1
    69    46    45    1
    70    77    76   ar
    71    80    78   ar
    72    71    72    1
    73    76    78   ar
    74    76    75    1
    75    72    75    1
    76    72    73    1
    77    73    74    2
