@<TRIPOS>MOLECULE
tmp/1rkwC00.pdb
 165 157 0 0 0
SMALL
GASTEIGER

@<TRIPOS>ATOM
      1  N        -55.1460  -56.0190    9.5320 N.3    11  LYS11      -0.1245
      2  CA       -55.8860  -55.5280    8.3740 C.3    11  LYS11       0.1561
      3  C        -55.8320  -56.5230    7.2150 C.2    11  LYS11       0.2260
      4  O        -56.8660  -56.8270    6.6100 O.2    11  LYS11      -0.2867
      5  CB       -55.3730  -54.1470    7.9150 C.3    11  LYS11       0.0271
      6  CG       -56.1270  -53.6530    6.6810 C.3    11  LYS11       0.0035
      7  CD       -55.4790  -52.4390    6.2010 C.3    11  LYS11       0.0206
      8  CE       -55.7920  -52.1100    4.7730 C.3    11  LYS11       0.1093
      9  NZ       -54.9590  -50.9070    4.3850 N.3    11  LYS11      -0.1314
     10  N        -58.2360  -46.2200    8.6950 N.3    56  GLU56      -0.1245
     11  CA       -58.8200  -46.1880    7.3490 C.3    56  GLU56       0.1567
     12  C        -59.5070  -44.8760    7.0740 C.2    56  GLU56       0.2260
     13  O        -59.3510  -44.2870    6.0110 O.2    56  GLU56      -0.2867
     14  CB       -59.8060  -47.3220    7.1630 C.3    56  GLU56       0.0388
     15  CG       -59.1690  -48.6910    7.1300 C.3    56  GLU56       0.1160
     16  CD       -58.1400  -48.8080    6.0010 C.2    56  GLU56       0.3649
     17  OE1      -58.5430  -48.8080    4.8230 O.co2  56  GLU56      -0.2457
     18  OE2      -56.9230  -48.8900    6.2900 O.co2  56  GLU56      -0.2457
     19  N        -56.9460  -42.2410    6.3230 N.3    59  LYS59      -0.1231
     20  CA       -56.4280  -42.4090    5.0000 C.3    59  LYS59       0.1693
     21  C        -57.4670  -41.8600    4.0450 C.2    59  LYS59       0.2592
     22  O        -57.1220  -41.1530    3.1080 O.2    59  LYS59      -0.2718
     23  CB       -56.0980  -43.9020    4.6940 C.3    59  LYS59       0.0285
     24  CG       -55.0600  -44.5060    5.6420 C.3    59  LYS59       0.0035
     25  CD       -54.3200  -45.7630    5.1040 C.3    59  LYS59       0.0206
     26  CE       -53.0760  -46.1020    5.9890 C.3    59  LYS59       0.1093
     27  NZ       -52.2660  -47.2940    5.5620 N.3    59  LYS59      -0.1314
     28  N        -58.7450  -42.1520    4.2730 N.am   60  TRP60      -0.1976
     29  CA       -59.7880  -41.6510    3.3730 C.3    60  TRP60       0.1640
     30  C        -59.8450  -40.1210    3.4380 C.2    60  TRP60       0.2290
     31  O        -59.9780  -39.4620    2.4410 O.2    60  TRP60      -0.2864
     32  CB       -61.1490  -42.2980    3.7330 C.3    60  TRP60       0.0576
     33  CG       -62.3390  -41.6640    3.0480 C.ar   60  TRP60       0.0006
     34  CD1      -63.1800  -40.7200    3.5700 C.ar   60  TRP60       0.0946
     35  CD2      -62.7630  -41.8760    1.7100 C.ar   60  TRP60       0.0152
     36  NE1      -64.0960  -40.3300    2.6430 N.ar   60  TRP60      -0.2442
     37  CE2      -63.8650  -41.0180    1.4870 C.ar   60  TRP60       0.0810
     38  CE3      -62.3220  -42.7030    0.6750 C.ar   60  TRP60       0.0012
     39  CZ2      -64.5320  -40.9640    0.2600 C.ar   60  TRP60       0.0191
     40  CZ3      -62.9860  -42.6480   -0.5510 C.ar   60  TRP60       0.0001
     41  CH2      -64.0750  -41.7830   -0.7450 C.ar   60  TRP60       0.0015
     42  N        -57.3620  -37.9340    4.1420 N.3    62  GLU62      -0.1231
     43  CA       -56.2010  -37.4230    3.4320 C.3    62  GLU62       0.1699
     44  C        -56.4050  -37.5420    1.9280 C.2    62  GLU62       0.2592
     45  O        -56.0690  -36.6270    1.1610 O.2    62  GLU62      -0.2718
     46  CB       -54.9480  -38.1680    3.9000 C.3    62  GLU62       0.0402
     47  CG       -53.8010  -38.2460    2.9020 C.3    62  GLU62       0.1161
     48  CD       -53.9560  -39.4110    1.8860 C.2    62  GLU62       0.3649
     49  OE1      -54.1800  -40.5810    2.3210 O.co2  62  GLU62      -0.2457
     50  OE2      -53.8380  -39.1600    0.6490 O.co2  62  GLU62      -0.2457
     51  N        -56.9810  -38.6470    1.4850 N.am   63  GLN63      -0.1979
     52  CA       -57.1980  -38.7710    0.0620 C.3    63  GLN63       0.1601
     53  C        -58.2120  -37.7070   -0.4400 C.2    63  GLN63       0.2287
     54  O        -58.0340  -37.1510   -1.5340 O.2    63  GLN63      -0.2864
     55  CB       -57.6350  -40.2140   -0.2980 C.3    63  GLN63       0.0394
     56  CG       -58.3030  -40.3430   -1.7100 C.3    63  GLN63       0.0908
     57  CD       -58.7450  -41.7690   -2.1160 C.2    63  GLN63       0.2608
     58  OE1      -59.5370  -41.9500   -3.0740 O.2    63  GLN63      -0.2717
     59  NE2      -58.2190  -42.7770   -1.4120 N.am   63  GLN63      -0.0878
     60  N        -67.4750  -35.8200   -4.2670 N.3    81  TYR81      -0.1241
     61  CA       -67.3730  -36.6720   -3.0910 C.3    81  TYR81       0.1605
     62  C        -68.2790  -37.8960   -3.1860 C.2    81  TYR81       0.2264
     63  O        -67.8980  -39.0050   -2.8080 O.2    81  TYR81      -0.2867
     64  CB       -67.7450  -35.8750   -1.8460 C.3    81  TYR81       0.0534
     65  CG       -67.4460  -36.5810   -0.5550 C.ar   81  TYR81      -0.0201
     66  CD1      -66.1260  -36.7620   -0.1270 C.ar   81  TYR81      -0.0009
     67  CD2      -68.4740  -37.1040    0.2350 C.ar   81  TYR81      -0.0009
     68  CE1      -65.8280  -37.4670    1.0770 C.ar   81  TYR81       0.0417
     69  CE2      -68.1870  -37.7860    1.4120 C.ar   81  TYR81       0.0417
     70  CZ       -66.8600  -37.9740    1.8390 C.ar   81  TYR81       0.1957
     71  OH       -66.5910  -38.6950    3.0110 O.3    81  TYR81      -0.2866
     72  N        -67.0750  -41.8880   -3.4880 N.3    85  SER85      -0.1217
     73  CA       -67.4760  -42.8280   -2.4680 C.3    85  SER85       0.1889
     74  C        -68.0030  -44.0580   -3.1010 C.2    85  SER85       0.2288
     75  O        -67.8020  -45.1750   -2.6000 O.2    85  SER85      -0.2866
     76  CB       -68.5810  -42.2260   -1.5850 C.3    85  SER85       0.2089
     77  OG       -68.2330  -40.9310   -1.0870 O.3    85  SER85      -0.2183
     78  N        -64.7720  -45.6550   -5.0590 N.3    88  THR88      -0.1203
     79  CA       -63.7820  -46.3600   -4.2490 C.3    88  THR88       0.1994
     80  C        -64.3700  -47.5090   -3.4360 C.2    88  THR88       0.2617
     81  O        -63.6920  -48.4970   -3.1920 O.2    88  THR88      -0.2717
     82  CB       -62.9680  -45.4340   -3.3160 C.3    88  THR88       0.1784
     83  OG1      -63.5480  -45.4570   -2.0280 O.3    88  THR88      -0.2211
     84  CG2      -62.9500  -44.0200   -3.8120 C.3    88  THR88       0.0376
     85  N        -65.6340  -47.4520   -3.0440 N.am   89  GLU89      -0.1979
     86  CA       -66.1060  -48.5640   -2.2240 C.3    89  GLU89       0.1602
     87  C        -66.3360  -49.8030   -3.0500 C.2    89  GLU89       0.2287
     88  O        -66.3170  -50.8800   -2.5220 O.2    89  GLU89      -0.2864
     89  CB       -67.3510  -48.1840   -1.3840 C.3    89  GLU89       0.0415
     90  CG       -68.6850  -48.7020   -1.8390 C.3    89  GLU89       0.1163
     91  CD       -68.9190  -50.1880   -1.5670 C.2    89  GLU89       0.3649
     92  OE1      -69.3170  -50.9110   -2.5140 O.co2  89  GLU89      -0.2457
     93  OE2      -68.7250  -50.6230   -0.4120 O.co2  89  GLU89      -0.2457
     94  N        -63.0570  -51.7350   -2.5520 N.3    92  TYR92      -0.1241
     95  CA       -62.3650  -51.6010   -1.2740 C.3    92  TYR92       0.1605
     96  C        -62.4500  -52.9560   -0.6210 C.2    92  TYR92       0.2264
     97  O        -63.5220  -53.3900   -0.2260 O.2    92  TYR92      -0.2867
     98  CB       -63.0640  -50.5390   -0.4460 C.3    92  TYR92       0.0534
     99  CG       -62.4760  -50.2840    0.9080 C.ar   92  TYR92      -0.0201
    100  CD1      -63.2690  -50.3830    2.0490 C.ar   92  TYR92      -0.0009
    101  CD2      -61.1470  -49.8670    1.0510 C.ar   92  TYR92      -0.0009
    102  CE1      -62.7710  -50.0780    3.2930 C.ar   92  TYR92       0.0417
    103  CE2      -60.6340  -49.5420    2.3130 C.ar   92  TYR92       0.0417
    104  CZ       -61.4670  -49.6570    3.4290 C.ar   92  TYR92       0.1957
    105  OH       -60.9950  -49.3800    4.6780 O.3    92  TYR92      -0.2866
    106  N        -64.3540  -53.8220    2.8300 N.3    95  GLN95      -0.1245
    107  CA       -65.7930  -53.7020    2.9320 C.3    95  GLN95       0.1566
    108  C        -66.5010  -54.9370    3.4430 C.2    95  GLN95       0.2260
    109  O        -67.4440  -54.8280    4.2220 O.2    95  GLN95      -0.2867
    110  CB       -66.3740  -53.2120    1.6070 C.3    95  GLN95       0.0367
    111  CG       -67.7360  -52.4960    1.6850 C.3    95  GLN95       0.0905
    112  CD       -67.8510  -51.4240    2.7990 C.2    95  GLN95       0.2608
    113  OE1      -67.1000  -50.4520    2.8510 O.2    95  GLN95      -0.2717
    114  NE2      -68.8150  -51.6160    3.6900 N.am   95  GLN95      -0.0878
    115  N        -67.0040  -39.2790    9.2100 N.3   122  TYR122     -0.1241
    116  CA       -67.4210  -39.3490    7.8270 C.3   122  TYR122      0.1605
    117  C        -68.4330  -38.2570    7.4970 C.2   122  TYR122      0.2264
    118  O        -68.3160  -37.6070    6.4580 O.2   122  TYR122     -0.2867
    119  CB       -67.9880  -40.7340    7.5260 C.3   122  TYR122      0.0534
    120  CG       -66.9110  -41.7750    7.2790 C.ar  122  TYR122     -0.0201
    121  CD1      -66.5620  -42.7180    8.2730 C.ar  122  TYR122     -0.0009
    122  CD2      -66.2490  -41.8330    6.0280 C.ar  122  TYR122     -0.0009
    123  CE1      -65.5920  -43.6960    8.0320 C.ar  122  TYR122      0.0417
    124  CE2      -65.2670  -42.8030    5.7660 C.ar  122  TYR122      0.0417
    125  CZ       -64.9400  -43.7340    6.7680 C.ar  122  TYR122      0.1957
    126  OH       -63.9540  -44.6770    6.5000 O.3   122  TYR122     -0.2866
    127  N        -69.3430  -33.7470    4.7220 N.3   126  TYR126     -0.1241
    128  CA       -70.5040  -33.0180    4.2420 C.3   126  TYR126      0.1605
    129  C        -70.6590  -31.7110    4.9700 C.2   126  TYR126      0.2264
    130  O        -70.9590  -30.6860    4.3720 O.2   126  TYR126     -0.2867
    131  CB       -71.7510  -33.8650    4.4130 C.3   126  TYR126      0.0534
    132  CG       -71.7600  -35.0100    3.4430 C.ar  126  TYR126     -0.0201
    133  CD1      -72.0250  -34.7890    2.0850 C.ar  126  TYR126     -0.0009
    134  CD2      -71.4920  -36.3170    3.8660 C.ar  126  TYR126     -0.0009
    135  CE1      -72.0280  -35.8210    1.1970 C.ar  126  TYR126      0.0417
    136  CE2      -71.4900  -37.3530    2.9740 C.ar  126  TYR126      0.0417
    137  CZ       -71.7530  -37.1060    1.6410 C.ar  126  TYR126      0.1957
    138  OH       -71.6950  -38.1270    0.7290 O.3   126  TYR126     -0.2866
    139  N        -75.1850  -37.8380    3.9340 N.3   152  ALA152     -0.1245
    140  CA       -74.3170  -38.9630    4.1970 C.3   152  ALA152      0.1562
    141  C        -75.0010  -40.3140    4.0790 C.2   152  ALA152      0.2260
    142  O        -74.5190  -41.1840    3.3390 O.2   152  ALA152     -0.2867
    143  CB       -73.6290  -38.8220    5.5700 C.3   152  ALA152      0.0290
    144  N        -76.6310  -40.9460    0.3880 N.3   155  VAL155     -0.1231
    145  CA       -75.5530  -41.3690   -0.5150 C.3   155  VAL155      0.1692
    146  C        -75.1420  -42.8220   -0.1970 C.2   155  VAL155      0.2592
    147  O        -75.0130  -43.6850   -1.0740 O.2   155  VAL155     -0.2718
    148  CB       -74.3550  -40.4490   -0.3660 C.3   155  VAL155      0.0266
    149  CG1      -73.1470  -41.0950   -0.9910 C.3   155  VAL155      0.0020
    150  CG2      -74.6980  -39.0410   -0.9990 C.3   155  VAL155      0.0020
    151  N        -75.0100  -43.0840    1.0800 N.am  156  ASN156     -0.1974
    152  CA       -74.6660  -44.3750    1.5690 C.3   156  ASN156      0.1688
    153  C        -75.5930  -45.4780    1.1050 C.2   156  ASN156      0.2292
    154  O        -75.1700  -46.6290    0.8540 O.2   156  ASN156     -0.2864
    155  CB       -74.6970  -44.3350    3.0610 C.3   156  ASN156      0.1181
    156  CG       -73.4710  -44.8980    3.6570 C.2   156  ASN156      0.2629
    157  OD1      -72.7470  -44.2030    4.4100 O.2   156  ASN156     -0.2716
    158  ND2      -73.1940  -46.1680    3.3290 N.am  156  ASN156     -0.0877
    159  N        -74.9520  -46.1380   -2.5270 N.3   159  VAL159     -0.1245
    160  CA       -73.7240  -46.9070   -2.7090 C.3   159  VAL159      0.1561
    161  C        -73.9120  -48.3820   -2.3630 C.2   159  VAL159      0.2260
    162  O        -73.4630  -49.2500   -3.0970 O.2   159  VAL159     -0.2867
    163  CB       -72.6000  -46.3450   -1.8000 C.3   159  VAL159      0.0252
    164  CG1      -71.5580  -47.3350   -1.6100 C.3   159  VAL159      0.0019
    165  CG2      -72.0210  -45.0630   -2.3830 C.3   159  VAL159      0.0019
@<TRIPOS>BOND
     1    78    79    1
     2    60    61    1
     3    79    80    1
     4    79    82    1
     5    84    82    1
     6    72    73    1
     7    80    81    2
     8    80    85   am
     9    82    83    1
    10    62    61    1
    11    62    63    2
    12    74    75    2
    13    74    73    1
    14   162   161    2
    15    61    64    1
    16    58    57    2
    17    87    88    2
    18    87    86    1
    19    85    86    1
    20   160   159    1
    21   160   161    1
    22   160   163    1
    23    94    95    1
    24    92    91   ar
    25    73    76    1
    26   165   163    1
    27    86    89    1
    28    57    56    1
    29    57    59   am
    30    64    65    1
    31    90    91    1
    32    90    89    1
    33   163   164    1
    34    56    55    1
    35    76    77    1
    36    91    93   ar
    37    54    53    2
    38    95    96    1
    39    95    98    1
    40   147   146    2
    41   150   148    1
    42   149   148    1
    43    41    40   ar
    44    41    39   ar
    45    96    97    2
    46    65    66   ar
    47    65    67   ar
    48    40    38   ar
    49   145   148    1
    50   145   146    1
    51   145   144    1
    52    98    99    1
    53    53    52    1
    54    55    52    1
    55   146   151   am
    56    66    68   ar
    57    52    51    1
    58    67    69   ar
    59    39    37   ar
    60    50    48   ar
    61    38    35   ar
    62   138   137    1
    63   154   153    2
    64    99   101   ar
    65    99   100   ar
    66   101   103   ar
    67    68    70   ar
    68   151   152    1
    69   153   152    1
    70    45    44    2
    71   135   137   ar
    72   135   133   ar
    73    69    70   ar
    74    51    44   am
    75    37    35   ar
    76    37    36   ar
    77   152   155    1
    78   110   111    1
    79   110   107    1
    80   137   136   ar
    81   111   112    1
    82    35    33   ar
    83    70    71    1
    84    48    49   ar
    85    48    47    1
    86    44    43    1
    87   100   102   ar
    88   133   132   ar
    89   103   104   ar
    90    31    30    2
    91    36    34   ar
    92   112   113    2
    93   112   114   am
    94   106   107    1
    95    47    46    1
    96   107   108    1
    97   136   134   ar
    98    33    34   ar
    99    33    32    1
   100   155   156    1
   101    22    21    2
   102   102   104   ar
   103   158   156   am
   104   142   141    2
   105    29    30    1
   106    29    32    1
   107    29    28    1
   108   104   105    1
   109    43    46    1
   110    43    42    1
   111   132   134   ar
   112   132   131    1
   113   108   109    2
   114   156   157    2
   115   139   140    1
   116    21    28   am
   117    21    20    1
   118   141   140    1
   119   140   143    1
   120   128   131    1
   121   128   127    1
   122   128   129    1
   123   130   129    2
   124     9     8    1
   125    23    20    1
   126    23    24    1
   127     8     7    1
   128    17    16   ar
   129    20    19    1
   130    25    24    1
   131    25    26    1
   132    27    26    1
   133   124   122   ar
   134   124   125   ar
   135    16    18   ar
   136    16    15    1
   137    13    12    2
   138   122   120   ar
   139     7     6    1
   140   118   117    2
   141   126   125    1
   142     4     3    2
   143     6     5    1
   144   125   123   ar
   145    12    11    1
   146    15    14    1
   147    14    11    1
   148     3     2    1
   149   120   119    1
   150   120   121   ar
   151    11    10    1
   152   117   116    1
   153   119   116    1
   154   116   115    1
   155     5     2    1
   156   123   121   ar
   157     2     1    1
