@<TRIPOS>MOLECULE
tmp/1rl4B00.pdb
 109 105 0 0 0
SMALL
GASTEIGER

@<TRIPOS>ATOM
      1  N         32.2610   13.5200  -28.2020 N.3    39  LYS39      -0.1231
      2  CA        31.8290   12.7860  -27.0140 C.3    39  LYS39       0.1693
      3  C         31.5740   13.7250  -25.8240 C.2    39  LYS39       0.2593
      4  O         31.9060   13.4130  -24.6830 O.2    39  LYS39      -0.2718
      5  CB        32.8460   11.6960  -26.6440 C.3    39  LYS39       0.0285
      6  CG        32.9600   10.5560  -27.6570 C.3    39  LYS39       0.0035
      7  CD        33.5490    9.2950  -27.0190 C.3    39  LYS39       0.0206
      8  CE        34.5920    8.6400  -27.9190 C.3    39  LYS39       0.1093
      9  NZ        33.9720    8.0630  -29.1460 N.3    39  LYS39      -0.1314
     10  N         30.9830   14.8790  -26.1010 N.am   40  GLY40      -0.1942
     11  CA        30.7020   15.8440  -25.0630 C.3    40  GLY40       0.2014
     12  C         29.3430   15.5960  -24.4500 C.2    40  GLY40       0.2639
     13  O         28.4570   15.0360  -25.0770 O.2    40  GLY40      -0.2714
     14  N         29.1700   16.0120  -23.2100 N.am   41  ILE41      -0.1963
     15  CA        27.8920   15.8350  -22.5510 C.3    41  ILE41       0.1727
     16  C         26.9950   17.0280  -22.8660 C.2    41  ILE41       0.2616
     17  O         25.7870   16.9870  -22.6530 O.2    41  ILE41      -0.2715
     18  CB        28.0980   15.6340  -21.0300 C.3    41  ILE41       0.0290
     19  CG1       26.9190   14.8670  -20.4220 C.3    41  ILE41       0.0022
     20  CG2       28.3570   16.9630  -20.3310 C.3    41  ILE41       0.0023
     21  CD1       27.3070   13.5070  -19.8500 C.3    41  ILE41       0.0001
     22  N         27.5950   18.0830  -23.4060 N.am   42  GLY42      -0.1955
     23  CA        26.8730   19.2920  -23.7480 C.3    42  GLY42       0.1869
     24  C         27.7460   20.2170  -24.5690 C.2    42  GLY42       0.2309
     25  O         28.9420   19.9850  -24.6980 O.2    42  GLY42      -0.2863
     26  N         31.3260   27.7750  -28.7440 N.3    47  GLN47      -0.1245
     27  CA        32.3340   26.7360  -28.9000 C.3    47  GLN47       0.1566
     28  C         32.3830   26.1150  -30.2990 C.2    47  GLN47       0.2260
     29  O         33.3050   25.3440  -30.6080 O.2    47  GLN47      -0.2867
     30  CB        32.1390   25.6380  -27.8690 C.3    47  GLN47       0.0367
     31  CG        32.4260   26.0710  -26.4540 C.3    47  GLN47       0.0905
     32  CD        32.0230   24.9920  -25.4980 C.2    47  GLN47       0.2608
     33  OE1       30.8270   24.7810  -25.2670 O.2    47  GLN47      -0.2717
     34  NE2       33.0080   24.2510  -24.9900 N.am   47  GLN47      -0.0878
     35  N         35.2670   20.0360  -12.9990 N.3    78  GLU78      -0.1231
     36  CA        34.7110   20.2020  -14.3350 C.3    78  GLU78       0.1699
     37  C         35.8170   20.1120  -15.3600 C.2    78  GLU78       0.2593
     38  O         36.9390   20.5010  -15.0860 O.2    78  GLU78      -0.2718
     39  CB        34.0390   21.5930  -14.4660 C.3    78  GLU78       0.0402
     40  CG        32.7590   21.7530  -13.6690 C.3    78  GLU78       0.1161
     41  CD        32.1540   23.1530  -13.7470 C.2    78  GLU78       0.3649
     42  OE1       32.4010   23.9130  -14.7250 O.co2  78  GLU78      -0.2457
     43  OE2       31.4090   23.4890  -12.8150 O.co2  78  GLU78      -0.2457
     44  N         35.4810   19.6270  -16.5480 N.am   79  GLY79      -0.1942
     45  CA        36.3200   19.8050  -17.7120 C.3    79  GLY79       0.2014
     46  C         35.5730   20.7030  -18.6790 C.2    79  GLY79       0.2639
     47  O         34.4180   21.0400  -18.4520 O.2    79  GLY79      -0.2714
     48  N         36.2290   21.0910  -19.7590 N.am   80  CYS80      -0.1953
     49  CA        35.6090   21.8910  -20.8020 C.3    80  CYS80       0.1843
     50  C         36.2030   21.4820  -22.1440 C.2    80  CYS80       0.2625
     51  O         37.4270   21.3720  -22.2750 O.2    80  CYS80      -0.2714
     52  CB        35.8600   23.3730  -20.5500 C.3    80  CYS80       0.0997
     53  SG        35.0560   24.4840  -21.7210 S.3    80  CYS80      -0.0797
     54  N         35.3450   21.2420  -23.1300 N.am   81  LEU81      -0.1977
     55  CA        35.8200   20.9060  -24.4690 C.3    81  LEU81       0.1596
     56  C         36.7050   21.9980  -25.0700 C.2    81  LEU81       0.2287
     57  O         37.4590   21.7340  -25.9940 O.2    81  LEU81      -0.2864
     58  CB        34.6550   20.6140  -25.4040 C.3    81  LEU81       0.0297
     59  CG        34.0800   19.2040  -25.3120 C.3    81  LEU81       0.0022
     60  CD1       32.8070   19.1270  -26.1610 C.3    81  LEU81       0.0001
     61  CD2       35.1010   18.1570  -25.7420 C.3    81  LEU81       0.0001
     62  N         24.3440   21.3240  -13.0980 N.3   118  ARG118     -0.1231
     63  CA        25.7750   21.6000  -13.2440 C.3   118  ARG118      0.1694
     64  C         26.1530   21.9110  -14.6850 C.2   118  ARG118      0.2591
     65  O         26.8400   22.8920  -14.9680 O.2   118  ARG118     -0.2718
     66  CB        26.6320   20.4090  -12.7780 C.3   118  ARG118      0.0321
     67  CG        28.0900   20.8470  -12.5850 C.3   118  ARG118      0.0489
     68  CD        28.0850   21.9910  -11.5910 C.3   118  ARG118      0.2205
     69  NE        29.3760   22.4530  -11.2470 N.pl3 118  ARG118     -0.0865
     70  CZ        29.7430   22.6970  -10.0310 C.cat 118  ARG118      0.5346
     71  NH1       28.8960   22.5040   -9.0300 N.pl3 118  ARG118      0.1354
     72  NH2       30.9720   23.1190   -9.8260 N.pl3 118  ARG118      0.1354
     73  N         25.7130   21.0550  -15.5990 N.am  119  ILE119     -0.1980
     74  CA        26.0830   21.2100  -16.9930 C.3   119  ILE119      0.1595
     75  C         25.5030   22.5180  -17.5040 C.2   119  ILE119      0.2287
     76  O         26.1800   23.2810  -18.1920 O.2   119  ILE119     -0.2864
     77  CB        25.5250   20.0410  -17.8210 C.3   119  ILE119      0.0276
     78  CG1       26.2660   18.7490  -17.4820 C.3   119  ILE119      0.0022
     79  CG2       25.6370   20.3430  -19.3180 C.3   119  ILE119      0.0022
     80  CD1       25.5330   17.5170  -18.0110 C.3   119  ILE119      0.0001
     81  N         27.4860   25.6390  -16.4340 N.3   122  HIS122     -0.1226
     82  CA        28.7630   25.7250  -17.1110 C.3   122  HIS122      0.1752
     83  C         28.5350   26.2660  -18.5240 C.2   122  HIS122      0.2595
     84  O         29.1950   27.1940  -18.9420 O.2   122  HIS122     -0.2718
     85  CB        29.4260   24.3450  -17.1650 C.3   122  HIS122      0.0759
     86  CG        30.6280   24.2760  -18.0560 C.ar  122  HIS122      0.0818
     87  ND1       31.9070   24.1420  -17.5620 N.ar  122  HIS122     -0.2268
     88  CD2       30.7440   24.2920  -19.4090 C.ar  122  HIS122      0.1154
     89  CE1       32.7620   24.0920  -18.5690 C.ar  122  HIS122      0.1986
     90  NE2       32.0840   24.1850  -19.6980 N.ar  122  HIS122     -0.2212
     91  N         27.5870   25.6810  -19.2400 N.am  123  GLU123     -0.1979
     92  CA        27.2730   26.0990  -20.5940 C.3   123  GLU123      0.1602
     93  C         26.6840   27.4970  -20.6930 C.2   123  GLU123      0.2287
     94  O         27.0200   28.2470  -21.6120 O.2   123  GLU123     -0.2864
     95  CB        26.3540   25.0700  -21.2440 C.3   123  GLU123      0.0415
     96  CG        27.1760   23.8420  -21.6080 C.3   123  GLU123      0.1163
     97  CD        26.3560   22.5930  -21.7190 C.2   123  GLU123      0.3649
     98  OE1       25.1120   22.6890  -21.6660 O.co2 123  GLU123     -0.2457
     99  OE2       26.9680   21.5150  -21.8540 O.co2 123  GLU123     -0.2457
    100  N         29.3570   30.0070  -20.8470 N.3   126  HIS126     -0.1241
    101  CA        29.9690   30.1760  -22.1720 C.3   126  HIS126      0.1621
    102  C         29.2600   31.3110  -22.9320 C.2   126  HIS126      0.2264
    103  O         29.9060   32.1000  -23.6230 O.2   126  HIS126     -0.2867
    104  CB        29.8880   28.8720  -22.9830 C.3   126  HIS126      0.0745
    105  CG        31.0130   27.9130  -22.7330 C.ar  126  HIS126      0.0817
    106  ND1       32.3340   28.2250  -22.9850 N.ar  126  HIS126     -0.2268
    107  CD2       31.0110   26.6380  -22.2780 C.ar  126  HIS126      0.1154
    108  CE1       33.0950   27.1850  -22.6950 C.ar  126  HIS126      0.1986
    109  NE2       32.3210   26.2100  -22.2530 N.ar  126  HIS126     -0.2212
@<TRIPOS>BOND
     1    29    28    2
     2    28    27    1
     3     9     8    1
     4    27    26    1
     5    27    30    1
     6     1     2    1
     7     8     7    1
     8    30    31    1
     9     6     7    1
    10     6     5    1
    11     2     5    1
    12     2     3    1
    13    31    32    1
    14    60    59    1
    15    10     3   am
    16    10    11    1
    17    57    56    2
    18     3     4    2
    19    61    59    1
    20    32    33    2
    21    32    34   am
    22    58    59    1
    23    58    55    1
    24    13    12    2
    25    56    55    1
    26    11    12    1
    27    25    24    2
    28    24    23    1
    29    55    54    1
    30    12    14   am
    31    23    22    1
    32   103   102    2
    33    22    16   am
    34    14    15    1
    35    54    50   am
    36   106   105   ar
    37   106   108   ar
    38   104   105    1
    39   104   101    1
    40   102   101    1
    41    16    17    2
    42    16    15    1
    43   105   107   ar
    44   108   109   ar
    45    15    18    1
    46   107   109   ar
    47    51    50    2
    48   101   100    1
    49    50    49    1
    50    99    97   ar
    51    53    52    1
    52    97    98   ar
    53    97    96    1
    54    94    93    2
    55    96    95    1
    56    95    92    1
    57    18    19    1
    58    18    20    1
    59    49    52    1
    60    49    48    1
    61    93    92    1
    62    92    91    1
    63    19    21    1
    64    48    46   am
    65    90    88   ar
    66    90    89   ar
    67    88    86   ar
    68    79    77    1
    69    91    83   am
    70    84    83    2
    71    46    47    2
    72    46    45    1
    73    89    87   ar
    74    83    82    1
    75    76    75    2
    76    86    87   ar
    77    86    85    1
    78    80    78    1
    79    77    78    1
    80    77    74    1
    81    45    44    1
    82    75    74    1
    83    85    82    1
    84    82    81    1
    85    74    73    1
    86    44    37   am
    87    73    64   am
    88    37    38    2
    89    37    36    1
    90    65    64    2
    91    42    41   ar
    92    64    63    1
    93    39    36    1
    94    39    40    1
    95    36    35    1
    96    41    40    1
    97    41    43   ar
    98    63    62    1
    99    63    66    1
   100    66    67    1
   101    67    68    1
   102    68    69    1
   103    69    70    2
   104    70    72    1
   105    70    71    1
