@<TRIPOS>MOLECULE
tmp/1rl4B01.pdb
 103 97 0 0 0
SMALL
GASTEIGER

@<TRIPOS>ATOM
      1  N         29.1700   16.0120  -23.2100 N.3    41  ILE41      -0.1245
      2  CA        27.8920   15.8350  -22.5510 C.3    41  ILE41       0.1561
      3  C         26.9950   17.0280  -22.8660 C.2    41  ILE41       0.2260
      4  O         25.7870   16.9870  -22.6530 O.2    41  ILE41      -0.2867
      5  CB        28.0980   15.6340  -21.0300 C.3    41  ILE41       0.0252
      6  CG1       26.9190   14.8670  -20.4220 C.3    41  ILE41       0.0019
      7  CG2       28.3570   16.9630  -20.3310 C.3    41  ILE41       0.0019
      8  CD1       27.3070   13.5070  -19.8500 C.3    41  ILE41       0.0001
      9  N         28.0670   23.5230   -4.0410 N.3    74  LEU74      -0.1231
     10  CA        29.1430   22.5460   -3.9230 C.3    74  LEU74       0.1693
     11  C         30.1470   22.6930   -5.0400 C.2    74  LEU74       0.2592
     12  O         29.8230   23.2020   -6.1260 O.2    74  LEU74      -0.2718
     13  CB        28.6250   21.0990   -3.8810 C.3    74  LEU74       0.0284
     14  CG        27.6080   20.4050   -4.7950 C.3    74  LEU74       0.0019
     15  CD1       27.0490   21.2310   -5.9530 C.3    74  LEU74       0.0001
     16  CD2       28.1210   19.0180   -5.2650 C.3    74  LEU74       0.0001
     17  N         31.3680   22.2480   -4.7530 N.am   75  LYS75      -0.1966
     18  CA        32.4240   22.1680   -5.7530 C.3    75  LYS75       0.1728
     19  C         32.3800   20.8250   -6.4550 C.2    75  LYS75       0.2616
     20  O         32.2710   19.7740   -5.8140 O.2    75  LYS75      -0.2715
     21  CB        33.8110   22.3870   -5.1250 C.3    75  LYS75       0.0311
     22  CG        33.9710   23.7570   -4.4540 C.3    75  LYS75       0.0038
     23  CD        35.1430   23.7800   -3.4780 C.3    75  LYS75       0.0206
     24  CE        35.3030   25.1650   -2.8870 C.3    75  LYS75       0.1093
     25  NZ        36.4780   25.2270   -1.9790 N.3    75  LYS75      -0.1314
     26  N         32.4310   20.8850   -7.7810 N.am   76  LEU76      -0.1963
     27  CA        32.6040   19.7050   -8.6100 C.3    76  LEU76       0.1728
     28  C         33.7510   19.9740   -9.5660 C.2    76  LEU76       0.2616
     29  O         33.9310   21.1090  -10.0450 O.2    76  LEU76      -0.2715
     30  CB        31.3290   19.4130   -9.3990 C.3    76  LEU76       0.0311
     31  CG        30.1060   18.9700   -8.5950 C.3    76  LEU76       0.0022
     32  CD1       28.8800   18.8710   -9.4980 C.3    76  LEU76       0.0001
     33  CD2       30.3830   17.6220   -7.8930 C.3    76  LEU76       0.0001
     34  N         34.5470   18.9420   -9.8220 N.am   77  ILE77      -0.1963
     35  CA        35.5890   19.0340  -10.8330 C.3    77  ILE77       0.1727
     36  C         34.9500   19.0150  -12.2140 C.2    77  ILE77       0.2616
     37  O         34.1670   18.1190  -12.5410 O.2    77  ILE77      -0.2715
     38  CB        36.6250   17.8960  -10.6760 C.3    77  ILE77       0.0290
     39  CG1       37.4060   18.0550   -9.3630 C.3    77  ILE77       0.0022
     40  CG2       37.5880   17.8590  -11.8700 C.3    77  ILE77       0.0023
     41  CD1       38.3890   16.9280   -9.1290 C.3    77  ILE77       0.0001
     42  N         35.2670   20.0360  -12.9990 N.am   78  GLU78      -0.1963
     43  CA        34.7110   20.2020  -14.3350 C.3    78  GLU78       0.1733
     44  C         35.8170   20.1120  -15.3600 C.2    78  GLU78       0.2616
     45  O         36.9390   20.5010  -15.0860 O.2    78  GLU78      -0.2715
     46  CB        34.0390   21.5930  -14.4660 C.3    78  GLU78       0.0429
     47  CG        32.7590   21.7530  -13.6690 C.3    78  GLU78       0.1163
     48  CD        32.1540   23.1530  -13.7470 C.2    78  GLU78       0.3649
     49  OE1       32.4010   23.9130  -14.7250 O.co2  78  GLU78      -0.2457
     50  OE2       31.4090   23.4890  -12.8150 O.co2  78  GLU78      -0.2457
     51  N         35.4810   19.6270  -16.5480 N.am   79  GLY79      -0.1955
     52  CA        36.3200   19.8050  -17.7120 C.3    79  GLY79       0.1869
     53  C         35.5730   20.7030  -18.6790 C.2    79  GLY79       0.2309
     54  O         34.4180   21.0400  -18.4520 O.2    79  GLY79      -0.2863
     55  N         41.3310   20.4050  -15.9240 N.3    87  GLU87      -0.1245
     56  CA        40.2590   20.1730  -14.9750 C.3    87  GLU87       0.1567
     57  C         40.5050   20.9430  -13.6920 C.2    87  GLU87       0.2260
     58  O         41.6440   21.2180  -13.3390 O.2    87  GLU87      -0.2867
     59  CB        40.1220   18.6890  -14.6610 C.3    87  GLU87       0.0388
     60  CG        39.4000   17.9210  -15.7400 C.3    87  GLU87       0.1160
     61  CD        39.3770   16.4360  -15.4730 C.2    87  GLU87       0.3649
     62  OE1       39.8200   15.9920  -14.3890 O.co2  87  GLU87      -0.2457
     63  OE2       38.9190   15.7190  -16.3720 O.co2  87  GLU87      -0.2457
     64  N         38.1700   22.2320   -9.7280 N.3    89  LYS89      -0.1245
     65  CA        36.9640   22.3490   -8.9260 C.3    89  LYS89       0.1561
     66  C         36.2780   23.6880   -9.1650 C.2    89  LYS89       0.2260
     67  O         36.9380   24.7320   -9.1790 O.2    89  LYS89      -0.2867
     68  CB        37.3280   22.2820   -7.4400 C.3    89  LYS89       0.0271
     69  CG        37.4900   20.8860   -6.8970 C.3    89  LYS89       0.0035
     70  CD        38.2410   20.9150   -5.5810 C.3    89  LYS89       0.0206
     71  CE        37.7160   19.8510   -4.6310 C.3    89  LYS89       0.1093
     72  NZ        38.3010   18.5190   -4.9360 N.3    89  LYS89      -0.1314
     73  N         21.1120   18.3970   -9.6550 N.3   114  GLY114     -0.1210
     74  CA        22.0950   17.3710   -9.9100 C.3   114  GLY114      0.1956
     75  C         22.9460   17.7240  -11.1100 C.2   114  GLY114      0.2611
     76  O         23.4810   18.8420  -11.2180 O.2   114  GLY114     -0.2717
     77  N         23.0740   16.7620  -12.0080 N.am  115  ILE115     -0.1979
     78  CA        23.9870   16.8650  -13.1480 C.3   115  ILE115      0.1595
     79  C         23.5180   17.8950  -14.1680 C.2   115  ILE115      0.2287
     80  O         24.3260   18.6260  -14.7480 O.2   115  ILE115     -0.2864
     81  CB        24.1120   15.4660  -13.8200 C.3   115  ILE115      0.0276
     82  CG1       24.7990   14.4750  -12.8710 C.3   115  ILE115      0.0022
     83  CG2       24.8190   15.5390  -15.1920 C.3   115  ILE115      0.0022
     84  CD1       24.5020   13.0250  -13.2380 C.3   115  ILE115      0.0001
     85  N         24.3440   21.3240  -13.0980 N.3   118  ARG118     -0.1231
     86  CA        25.7750   21.6000  -13.2440 C.3   118  ARG118      0.1694
     87  C         26.1530   21.9110  -14.6850 C.2   118  ARG118      0.2591
     88  O         26.8400   22.8920  -14.9680 O.2   118  ARG118     -0.2718
     89  CB        26.6320   20.4090  -12.7780 C.3   118  ARG118      0.0321
     90  CG        28.0900   20.8470  -12.5850 C.3   118  ARG118      0.0489
     91  CD        28.0850   21.9910  -11.5910 C.3   118  ARG118      0.2205
     92  NE        29.3760   22.4530  -11.2470 N.pl3 118  ARG118     -0.0865
     93  CZ        29.7430   22.6970  -10.0310 C.cat 118  ARG118      0.5346
     94  NH1       28.8960   22.5040   -9.0300 N.pl3 118  ARG118      0.1354
     95  NH2       30.9720   23.1190   -9.8260 N.pl3 118  ARG118      0.1354
     96  N         25.7130   21.0550  -15.5990 N.am  119  ILE119     -0.1980
     97  CA        26.0830   21.2100  -16.9930 C.3   119  ILE119      0.1595
     98  C         25.5030   22.5180  -17.5040 C.2   119  ILE119      0.2287
     99  O         26.1800   23.2810  -18.1920 O.2   119  ILE119     -0.2864
    100  CB        25.5250   20.0410  -17.8210 C.3   119  ILE119      0.0276
    101  CG1       26.2660   18.7490  -17.4820 C.3   119  ILE119      0.0022
    102  CG2       25.6370   20.3430  -19.3180 C.3   119  ILE119      0.0022
    103  CD1       25.5330   17.5170  -18.0110 C.3   119  ILE119      0.0001
@<TRIPOS>BOND
     1     1     2    1
     2     3     4    2
     3     3     2    1
     4     2     5    1
     5     5     6    1
     6     5     7    1
     7     6     8    1
     8   102   100    1
     9    53    54    2
    10    53    52    1
    11    99    98    2
    12   103   101    1
    13   100   101    1
    14   100    97    1
    15    52    51    1
    16    98    97    1
    17    97    96    1
    18    51    44   am
    19    63    61   ar
    20    55    56    1
    21    60    61    1
    22    60    59    1
    23    96    87   am
    24    61    62   ar
    25    44    45    2
    26    44    43    1
    27    83    81    1
    28    56    59    1
    29    56    57    1
    30    88    87    2
    31    80    79    2
    32    49    48   ar
    33    87    86    1
    34    46    43    1
    35    46    47    1
    36    43    42    1
    37    79    78    1
    38    81    78    1
    39    81    82    1
    40    48    47    1
    41    48    50   ar
    42    57    58    2
    43    86    85    1
    44    86    89    1
    45    84    82    1
    46    78    77    1
    47    42    36   am
    48    89    90    1
    49    90    91    1
    50    37    36    2
    51    36    35    1
    52    77    75   am
    53    40    38    1
    54    91    92    1
    55    92    93    2
    56    76    75    2
    57    75    74    1
    58    35    38    1
    59    35    34    1
    60    38    39    1
    61    29    28    2
    62    93    95    1
    63    93    94    1
    64    74    73    1
    65    34    28   am
    66    64    65    1
    67    28    27    1
    68    32    31    1
    69    30    27    1
    70    30    31    1
    71    39    41    1
    72    67    66    2
    73    66    65    1
    74    65    68    1
    75    27    26    1
    76    31    33    1
    77    26    19   am
    78    68    69    1
    79    69    70    1
    80    19    20    2
    81    19    18    1
    82    12    11    2
    83    15    14    1
    84    18    21    1
    85    18    17    1
    86    70    71    1
    87    16    14    1
    88    21    22    1
    89    11    17   am
    90    11    10    1
    91    72    71    1
    92    14    13    1
    93    22    23    1
    94     9    10    1
    95    10    13    1
    96    23    24    1
    97    24    25    1
