@<TRIPOS>MOLECULE
tmp/1rl9A01.pdb
 148 142 0 0 0
SMALL
GASTEIGER

@<TRIPOS>ATOM
      1  N        -23.5980   38.7280   73.7390 N.3    63  GLY63      -0.1210
      2  CA       -23.3790   37.9670   74.9740 C.3    63  GLY63       0.1956
      3  C        -21.9000   38.0090   75.3450 C.2    63  GLY63       0.2612
      4  O        -21.5300   38.2310   76.5260 O.2    63  GLY63      -0.2717
      5  N        -21.0440   37.8190   74.3370 N.am   64  VAL64      -0.1965
      6  CA       -19.5740   37.8300   74.5600 C.3    64  VAL64       0.1727
      7  C        -19.0360   39.0950   73.8950 C.2    64  VAL64       0.2617
      8  O        -18.7090   40.0630   74.5860 O.2    64  VAL64      -0.2715
      9  CB       -18.9820   36.5440   73.9710 C.3    64  VAL64       0.0290
     10  CG1      -17.5010   36.4800   74.2700 C.3    64  VAL64       0.0023
     11  CG2      -19.7290   35.3340   74.6120 C.3    64  VAL64       0.0023
     12  N        -18.9570   39.1350   72.5770 N.am   65  GLY65      -0.1940
     13  CA       -18.5720   40.3680   71.9180 C.3    65  GLY65       0.2014
     14  C        -17.1790   40.4760   71.3680 C.2    65  GLY65       0.2639
     15  O        -16.7790   41.5420   70.8990 O.2    65  GLY65      -0.2714
     16  N        -16.4230   39.3880   71.4380 N.am   66  ILE66      -0.1963
     17  CA       -15.0950   39.4030   70.8410 C.3    66  ILE66       0.1727
     18  C        -14.8530   38.1910   69.9710 C.2    66  ILE66       0.2616
     19  O        -15.5170   37.1490   70.1290 O.2    66  ILE66      -0.2715
     20  CB       -13.9760   39.5150   71.9160 C.3    66  ILE66       0.0290
     21  CG1      -13.9140   38.2430   72.7310 C.3    66  ILE66       0.0022
     22  CG2      -14.2120   40.7390   72.7790 C.3    66  ILE66       0.0023
     23  CD1      -12.6930   38.1780   73.6160 C.3    66  ILE66       0.0001
     24  N        -13.9410   38.3200   69.0090 N.am   67  TYR67      -0.1974
     25  CA       -13.5790   37.2210   68.1310 C.3    67  TYR67       0.1639
     26  C        -12.0810   37.3240   67.9120 C.2    67  TYR67       0.2290
     27  O        -11.4850   38.3800   68.1000 O.2    67  TYR67      -0.2864
     28  CB       -14.2700   37.3320   66.7510 C.3    67  TYR67       0.0560
     29  CG       -15.7760   37.1620   66.7380 C.ar   67  TYR67      -0.0198
     30  CD1      -16.6110   38.2670   66.9380 C.ar   67  TYR67      -0.0009
     31  CD2      -16.3580   35.9210   66.5190 C.ar   67  TYR67      -0.0009
     32  CE1      -17.9970   38.1350   66.9120 C.ar   67  TYR67       0.0417
     33  CE2      -17.7480   35.7740   66.4940 C.ar   67  TYR67       0.0417
     34  CZ       -18.5320   36.8880   66.6910 C.ar   67  TYR67       0.1957
     35  OH       -19.9070   36.7420   66.6570 O.3    67  TYR67      -0.2866
     36  N        -16.9170   32.5280   80.5340 N.3    88  TYR88      -0.1241
     37  CA       -17.8660   31.8000   79.7120 C.3    88  TYR88       0.1605
     38  C        -17.8190   30.2880   79.9430 C.2    88  TYR88       0.2264
     39  O        -18.8970   29.6580   80.0280 O.2    88  TYR88      -0.2867
     40  CB       -17.5940   32.0630   78.2280 C.3    88  TYR88       0.0534
     41  CG       -18.5350   31.3180   77.3220 C.ar   88  TYR88      -0.0201
     42  CD1      -19.8150   31.8150   77.0410 C.ar   88  TYR88      -0.0009
     43  CD2      -18.2070   30.0480   76.8540 C.ar   88  TYR88      -0.0009
     44  CE1      -20.7600   31.0300   76.3140 C.ar   88  TYR88       0.0417
     45  CE2      -19.1530   29.2560   76.1470 C.ar   88  TYR88       0.0417
     46  CZ       -20.4000   29.7740   75.9060 C.ar   88  TYR88       0.1957
     47  OH       -21.3450   28.9940   75.2740 O.3    88  TYR88      -0.2866
     48  N        -22.8640   19.4110   67.0500 N.3   125  ARG125     -0.1245
     49  CA       -21.9270   19.9140   66.0780 C.3   125  ARG125      0.1563
     50  C        -20.5880   20.2210   66.7340 C.2   125  ARG125      0.2260
     51  O        -20.4740   20.4540   67.9530 O.2   125  ARG125     -0.2867
     52  CB       -22.4680   21.2100   65.3970 C.3   125  ARG125      0.0307
     53  CG       -22.6840   22.4520   66.2990 C.3   125  ARG125      0.0489
     54  CD       -21.4320   23.2460   66.6440 C.3   125  ARG125      0.2205
     55  NE       -21.8190   24.5770   67.1510 N.pl3 125  ARG125     -0.0865
     56  CZ       -21.0400   25.3010   67.9430 C.cat 125  ARG125      0.5346
     57  NH1      -21.4230   26.4770   68.3330 N.pl3 125  ARG125      0.1354
     58  NH2      -19.8590   24.8140   68.3510 N.pl3 125  ARG125      0.1354
     59  N        -23.7560   40.3020   64.0200 N.3   193  PHE193     -0.1227
     60  CA       -22.5800   40.0900   64.8630 C.3   193  PHE193      0.1736
     61  C        -21.3910   39.6820   64.0260 C.2   193  PHE193      0.2595
     62  O        -20.2900   40.2120   64.2190 O.2   193  PHE193     -0.2718
     63  CB       -22.8640   39.0510   65.9540 C.3   193  PHE193      0.0547
     64  CG       -24.0490   39.4040   66.8060 C.ar  193  PHE193     -0.0202
     65  CD1      -25.3200   38.9110   66.4970 C.ar  193  PHE193     -0.0042
     66  CD2      -23.9150   40.2710   67.8820 C.ar  193  PHE193     -0.0042
     67  CE1      -26.4420   39.2880   67.2730 C.ar  193  PHE193     -0.0003
     68  CE2      -25.0120   40.6390   68.6480 C.ar  193  PHE193     -0.0003
     69  CZ       -26.2780   40.1440   68.3490 C.ar  193  PHE193     -0.0000
     70  N        -21.5720   38.7390   63.1090 N.am  194  LEU194     -0.1980
     71  CA       -20.5000   38.3260   62.2250 C.3   194  LEU194      0.1596
     72  C        -20.1450   39.4250   61.2330 C.2   194  LEU194      0.2287
     73  O        -18.9530   39.6280   60.9170 O.2   194  LEU194     -0.2864
     74  CB       -20.8810   37.0240   61.4840 C.3   194  LEU194      0.0297
     75  CG       -20.9820   35.8250   62.4300 C.3   194  LEU194      0.0022
     76  CD1      -21.6060   34.6350   61.6980 C.3   194  LEU194      0.0001
     77  CD2      -19.5490   35.5040   62.9460 C.3   194  LEU194      0.0001
     78  N        -19.1150   30.8610   60.2000 N.3   224  GLU224     -0.1245
     79  CA       -18.3470   31.4230   61.3130 C.3   224  GLU224      0.1567
     80  C        -16.9480   30.7850   61.4290 C.2   224  GLU224      0.2260
     81  O        -15.9640   31.4910   61.6560 O.2   224  GLU224     -0.2867
     82  CB       -19.1450   31.2040   62.5980 C.3   224  GLU224      0.0388
     83  CG       -18.5060   31.8690   63.8100 C.3   224  GLU224      0.1160
     84  CD       -19.3400   31.7370   65.0110 C.2   224  GLU224      0.3649
     85  OE1      -18.7460   31.5990   66.0920 O.co2 224  GLU224     -0.2457
     86  OE2      -20.5990   31.8020   64.9070 O.co2 224  GLU224     -0.2457
     87  N        -17.9880   23.5840   60.1090 N.3   228  ARG228     -0.1245
     88  CA       -18.8390   23.1480   61.2080 C.3   228  ARG228      0.1563
     89  C        -19.3000   21.7630   60.7600 C.2   228  ARG228      0.2260
     90  O        -19.9100   21.6100   59.6890 O.2   228  ARG228     -0.2867
     91  CB       -20.0300   24.0490   61.4360 C.3   228  ARG228      0.0307
     92  CG       -19.6410   25.3430   62.0700 C.3   228  ARG228      0.0489
     93  CD       -19.2250   25.1720   63.5280 C.3   228  ARG228      0.2205
     94  NE       -18.9590   26.4880   64.1220 N.pl3 228  ARG228     -0.0865
     95  CZ       -19.8920   27.3290   64.5560 C.cat 228  ARG228      0.5346
     96  NH1      -21.1730   26.9960   64.5010 N.pl3 228  ARG228      0.1354
     97  NH2      -19.5530   28.5220   65.0510 N.pl3 228  ARG228      0.1354
     98  N        -14.5780   32.1400   67.4330 N.3   270  CYS270     -0.1235
     99  CA       -15.1380   32.7320   68.6180 C.3   270  CYS270      0.1677
    100  C        -14.6180   31.9520   69.8220 C.2   270  CYS270      0.2270
    101  O        -14.6340   30.7240   69.8050 O.2   270  CYS270     -0.2867
    102  CB       -16.6810   32.6540   68.6290 C.3   270  CYS270      0.0956
    103  SG       -17.4890   33.6770   69.8510 S.3   270  CYS270     -0.0801
    104  N        -15.9690   31.2080   72.5090 N.3   272  THR272     -0.1203
    105  CA       -16.9250   30.2840   73.1170 C.3   272  THR272      0.1994
    106  C        -16.8700   28.8900   72.4690 C.2   272  THR272      0.2617
    107  O        -17.4210   27.9200   73.0040 O.2   272  THR272     -0.2717
    108  CB       -18.3950   30.7690   72.9800 C.3   272  THR272      0.1784
    109  OG1      -18.7130   30.8460   71.5840 O.3   272  THR272     -0.2211
    110  CG2      -18.6200   32.1040   73.6400 C.3   272  THR272      0.0376
    111  N        -16.1960   28.7730   71.3340 N.am  273  ASN273     -0.1974
    112  CA       -16.1990   27.4890   70.6730 C.3   273  ASN273      0.1688
    113  C        -14.8730   26.7350   70.7570 C.2   273  ASN273      0.2292
    114  O        -14.6550   25.7310   70.0490 O.2   273  ASN273     -0.2864
    115  CB       -16.6500   27.6780   69.2120 C.3   273  ASN273      0.1181
    116  CG       -18.1160   27.9820   69.1230 C.2   273  ASN273      0.2629
    117  OD1      -18.9410   27.3090   69.7750 O.2   273  ASN273     -0.2716
    118  ND2      -18.4470   28.9870   68.3230 N.am  273  ASN273     -0.0877
    119  N        -31.5260   28.9670   73.4270 N.3   308  ARG308     -0.1245
    120  CA       -31.5930   29.7480   72.1880 C.3   308  ARG308      0.1563
    121  C        -32.9870   29.5790   71.6010 C.2   308  ARG308      0.2260
    122  O        -33.7120   28.6280   71.9050 O.2   308  ARG308     -0.2867
    123  CB       -30.5500   29.2720   71.1630 C.3   308  ARG308      0.0307
    124  CG       -29.0910   29.4860   71.6340 C.3   308  ARG308      0.0489
    125  CD       -28.1070   28.8680   70.6170 C.3   308  ARG308      0.2205
    126  NE       -26.7630   29.0490   71.1520 N.pl3 308  ARG308     -0.0865
    127  CZ       -25.6570   29.0820   70.4340 C.cat 308  ARG308      0.5346
    128  NH1      -25.7000   28.9700   69.1350 N.pl3 308  ARG308      0.1354
    129  NH2      -24.4820   29.1910   71.0270 N.pl3 308  ARG308      0.1354
    130  N        -29.4070   31.0190   67.8660 N.3   313  GLU313     -0.1231
    131  CA       -29.1290   32.1590   68.7090 C.3   313  GLU313      0.1699
    132  C        -29.6770   33.4710   68.0910 C.2   313  GLU313      0.2592
    133  O        -29.7710   33.6510   66.8680 O.2   313  GLU313     -0.2718
    134  CB       -27.6100   32.2860   68.9420 C.3   313  GLU313      0.0402
    135  CG       -26.8610   32.4450   67.6400 C.3   313  GLU313      0.1161
    136  CD       -25.4020   32.7830   67.8870 C.2   313  GLU313      0.3649
    137  OE1      -25.0010   32.8430   69.0840 O.co2 313  GLU313     -0.2457
    138  OE2      -24.6860   32.9910   66.8720 O.co2 313  GLU313     -0.2457
    139  N        -30.0920   34.3460   68.9960 N.am  314  HIS314     -0.1976
    140  CA       -30.6690   35.6620   68.6740 C.3   314  HIS314      0.1656
    141  C        -31.9950   35.5870   67.9870 C.2   314  HIS314      0.2291
    142  O        -32.3430   36.4250   67.1390 O.2   314  HIS314     -0.2864
    143  CB       -29.6560   36.5050   67.8780 C.3   314  HIS314      0.0771
    144  CG       -28.3310   36.6420   68.5640 C.ar  314  HIS314      0.0820
    145  ND1      -27.1690   36.1230   68.0430 N.ar  314  HIS314     -0.2267
    146  CD2      -27.9960   37.1850   69.7590 C.ar  314  HIS314      0.1154
    147  CE1      -26.1770   36.3340   68.8900 C.ar  314  HIS314      0.1986
    148  NE2      -26.6480   36.9780   69.9370 N.ar  314  HIS314     -0.2212
@<TRIPOS>BOND
     1    90    89    2
     2    87    88    1
     3    78    79    1
     4    89    88    1
     5    73    72    2
     6    88    91    1
     7    72    71    1
     8    79    80    1
     9    79    82    1
    10    80    81    2
    11    91    92    1
    12    74    71    1
    13    74    75    1
    14    76    75    1
    15    92    93    1
    16    71    70    1
    17    75    77    1
    18    82    83    1
    19    70    61   am
    20    93    94    1
    21    83    84    1
    22    59    60    1
    23    61    62    2
    24    61    60    1
    25    94    95    2
    26    96    95    1
    27    95    97    1
    28    60    63    1
    29    86    84   ar
    30    84    85   ar
    31    52    49    1
    32    52    53    1
    33    63    64    1
    34    49    50    1
    35    49    48    1
    36    53    54    1
    37    33    31   ar
    38    33    34   ar
    39    65    64   ar
    40    65    67   ar
    41    31    29   ar
    42    54    55    1
    43    35    34    1
    44    34    32   ar
    45    50    51    2
    46    29    28    1
    47    29    30   ar
    48    28    25    1
    49    64    66   ar
    50   133   132    2
    51   138   136   ar
    52    32    30   ar
    53   142   141    2
    54    55    56    2
    55    67    69   ar
    56    98    99    1
    57   135   136    1
    58   135   134    1
    59   130   131    1
    60   143   144    1
    61   143   140    1
    62    66    68   ar
    63   136   137   ar
    64    26    27    2
    65    26    25    1
    66    56    57    1
    67    56    58    1
    68   141   140    1
    69   145   144   ar
    70   145   147   ar
    71   132   131    1
    72   132   139   am
    73    25    24    1
    74   118   116   am
    75    69    68   ar
    76   144   146   ar
    77    99   102    1
    78    99   100    1
    79   102   103    1
    80   140   139    1
    81   131   134    1
    82   147   148   ar
    83    24    18   am
    84   116   115    1
    85   116   117    2
    86   128   127    1
    87   115   112    1
    88   146   148   ar
    89   101   100    2
    90    18    19    2
    91    18    17    1
    92   114   113    2
    93   127   129    1
    94   127   126    2
    95   125   126    1
    96   125   124    1
    97   112   113    1
    98   112   111    1
    99    17    16    1
   100    17    20    1
   101    15    14    2
   102   123   124    1
   103   123   120    1
   104   111   106   am
   105    14    16   am
   106    14    13    1
   107   109   108    1
   108   121   122    2
   109   121   120    1
   110    20    21    1
   111    20    22    1
   112    13    12    1
   113   120   119    1
   114   106   107    2
   115   106   105    1
   116   104   105    1
   117    12     7   am
   118    21    23    1
   119   108   105    1
   120   108   110    1
   121     1     2    1
   122     7     6    1
   123     7     8    2
   124     9    10    1
   125     9     6    1
   126     9    11    1
   127     5     6    1
   128     5     3   am
   129     2     3    1
   130    47    46    1
   131     3     4    2
   132    46    45   ar
   133    46    44   ar
   134    45    43   ar
   135    44    42   ar
   136    43    41   ar
   137    42    41   ar
   138    41    40    1
   139    40    37    1
   140    37    38    1
   141    37    36    1
   142    38    39    2
