@<TRIPOS>MOLECULE
tmp/1rljA00.pdb
 154 153 0 0 0
SMALL
GASTEIGER

@<TRIPOS>ATOM
      1  N         29.7790   23.7460   13.5140 N.3    17  SER17      -0.1202
      2  CA        30.6390   24.5160   14.3970 C.3    17  SER17       0.2020
      3  C         30.3100   25.9950   14.2430 C.2    17  SER17       0.2619
      4  O         29.9910   26.4600   13.1460 O.2    17  SER17      -0.2717
      5  CB        32.1100   24.2610   14.0350 C.3    17  SER17       0.2103
      6  OG        33.0030   24.9440   14.8980 O.3    17  SER17      -0.2182
      7  N         30.3690   26.7320   15.3410 N.am   18  LYS18      -0.1965
      8  CA        30.0980   28.1550   15.2830 C.3    18  LYS18       0.1728
      9  C         31.3630   28.9170   15.6330 C.2    18  LYS18       0.2617
     10  O         31.7720   29.8130   14.9010 O.2    18  LYS18      -0.2715
     11  CB        28.9580   28.5370   16.2290 C.3    18  LYS18       0.0311
     12  CG        28.6130   30.0150   16.1570 C.3    18  LYS18       0.0038
     13  CD        27.2880   30.3300   16.8200 C.3    18  LYS18       0.0206
     14  CE        26.9710   31.8180   16.7020 C.3    18  LYS18       0.1093
     15  NZ        25.5550   32.1330   17.0620 N.3    18  LYS18      -0.1314
     16  N         32.0010   28.5530   16.7380 N.am   19  THR19      -0.1937
     17  CA        33.2250   29.2360   17.1260 C.3    19  THR19       0.2028
     18  C         34.4930   28.4300   16.7970 C.2    19  THR19       0.2643
     19  O         35.5780   28.7380   17.2840 O.2    19  THR19      -0.2714
     20  CB        33.1960   29.6430   18.6350 C.3    19  THR19       0.1808
     21  OG1       33.1390   28.4800   19.4650 O.3    19  THR19      -0.2208
     22  CG2       31.9740   30.5090   18.9200 C.3    19  THR19       0.0379
     23  N         34.3440   27.3920   15.9760 N.am   20  GLY20      -0.1939
     24  CA        35.4900   26.6020   15.5500 C.3    20  GLY20       0.2014
     25  C         36.0620   25.4630   16.3770 C.2    20  GLY20       0.2639
     26  O         36.9990   24.8110   15.9260 O.2    20  GLY20      -0.2714
     27  N         35.5340   25.2090   17.5680 N.am   21  ASN21      -0.1958
     28  CA        36.0520   24.1250   18.3990 C.3    21  ASN21       0.1819
     29  C         35.8310   22.7500   17.7770 C.2    21  ASN21       0.2621
     30  O         36.7330   21.9090   17.7950 O.2    21  ASN21      -0.2715
     31  CB        35.4310   24.1620   19.8010 C.3    21  ASN21       0.1195
     32  CG        35.8740   25.3730   20.6030 C.2    21  ASN21       0.2630
     33  OD1       36.9400   25.9350   20.3600 O.2    21  ASN21      -0.2716
     34  ND2       35.0660   25.7700   21.5680 N.am   21  ASN21      -0.0877
     35  N         34.6340   22.5160   17.2410 N.am   22  VAL22      -0.1977
     36  CA        34.3280   21.2320   16.6090 C.3    22  VAL22       0.1596
     37  C         35.2230   21.0620   15.3850 C.2    22  VAL22       0.2287
     38  O         35.7310   19.9770   15.1160 O.2    22  VAL22      -0.2864
     39  CB        32.8420   21.1450   16.1840 C.3    22  VAL22       0.0276
     40  CG1       32.6190   19.9240   15.2970 C.3    22  VAL22       0.0022
     41  CG2       31.9550   21.0460   17.4230 C.3    22  VAL22       0.0022
     42  N         27.9350   20.8990   18.2710 N.3    52  TYR52      -0.1227
     43  CA        28.2170   21.5940   19.5250 C.3    52  TYR52       0.1736
     44  C         26.9260   21.7670   20.3120 C.2    52  TYR52       0.2596
     45  O         25.9180   21.1540   19.9770 O.2    52  TYR52      -0.2718
     46  CB        28.8900   22.9470   19.2560 C.3    52  TYR52       0.0548
     47  CG        28.0890   23.9190   18.4130 C.ar   52  TYR52      -0.0200
     48  CD1       27.4330   25.0030   19.0000 C.ar   52  TYR52      -0.0009
     49  CD2       27.9950   23.7640   17.0250 C.ar   52  TYR52      -0.0009
     50  CE1       26.7080   25.9080   18.2320 C.ar   52  TYR52       0.0417
     51  CE2       27.2670   24.6660   16.2450 C.ar   52  TYR52       0.0417
     52  CZ        26.6250   25.7370   16.8560 C.ar   52  TYR52       0.1957
     53  OH        25.8990   26.6350   16.0950 O.3    52  TYR52      -0.2866
     54  N         26.9460   22.5870   21.3570 N.am   53  THR53      -0.1939
     55  CA        25.7490   22.7720   22.1760 C.3    53  THR53       0.2028
     56  C         25.4230   24.2490   22.3270 C.2    53  THR53       0.2643
     57  O         26.3200   25.0740   22.5040 O.2    53  THR53      -0.2714
     58  CB        25.9440   22.1450   23.5860 C.3    53  THR53       0.1808
     59  OG1       26.5550   20.8520   23.4520 O.3    53  THR53      -0.2208
     60  CG2       24.6030   21.9710   24.2960 C.3    53  THR53       0.0379
     61  N         24.1420   24.5910   22.2320 N.am   54  THR54      -0.1936
     62  CA        23.7490   25.9840   22.3810 C.3    54  THR54       0.2028
     63  C         22.8800   26.1570   23.6320 C.2    54  THR54       0.2642
     64  O         22.7130   25.2150   24.4040 O.2    54  THR54      -0.2714
     65  CB        23.0380   26.5130   21.1050 C.3    54  THR54       0.1808
     66  OG1       22.8970   27.9360   21.2010 O.3    54  THR54      -0.2208
     67  CG2       21.6700   25.8640   20.9160 C.3    54  THR54       0.0379
     68  N         22.3400   27.3560   23.8330 N.am   55  ASN55      -0.1957
     69  CA        21.5440   27.6790   25.0270 C.3    55  ASN55       0.1819
     70  C         20.7410   26.5590   25.6820 C.2    55  ASN55       0.2621
     71  O         19.9910   25.8450   25.0250 O.2    55  ASN55      -0.2715
     72  CB        20.5900   28.8500   24.7350 C.3    55  ASN55       0.1195
     73  CG        21.3110   30.0840   24.2170 C.2    55  ASN55       0.2630
     74  OD1       22.1230   30.6880   24.9160 O.2    55  ASN55      -0.2716
     75  ND2       21.0150   30.4590   22.9810 N.am   55  ASN55      -0.0877
     76  N         20.9160   26.4250   26.9930 N.am   56  PHE56      -0.1960
     77  CA        20.1990   25.4470   27.7970 C.3    56  PHE56       0.1771
     78  C         20.3060   23.9950   27.3170 C.2    56  PHE56       0.2620
     79  O         19.3160   23.2580   27.3290 O.2    56  PHE56      -0.2715
     80  CB        18.7270   25.8680   27.8810 C.3    56  PHE56       0.0574
     81  CG        18.5310   27.3640   27.9280 C.ar   56  PHE56      -0.0200
     82  CD1       19.1710   28.1390   28.8990 C.ar   56  PHE56      -0.0042
     83  CD2       17.7380   28.0050   26.9790 C.ar   56  PHE56      -0.0042
     84  CE1       19.0290   29.5350   28.9260 C.ar   56  PHE56      -0.0003
     85  CE2       17.5890   29.3980   26.9950 C.ar   56  PHE56      -0.0003
     86  CZ        18.2410   30.1610   27.9740 C.ar   56  PHE56      -0.0000
     87  N         21.5060   23.5900   26.9030 N.am   57  GLY57      -0.1954
     88  CA        21.7240   22.2260   26.4420 C.3    57  GLY57       0.1869
     89  C         20.9860   21.8460   25.1720 C.2    57  GLY57       0.2309
     90  O         20.6820   20.6770   24.9570 O.2    57  GLY57      -0.2863
     91  N         30.3680   18.5730   21.2320 N.3    80  SER80      -0.1202
     92  CA        31.3070   19.3890   21.9810 C.3    80  SER80       0.2020
     93  C         30.4780   20.3030   22.8910 C.2    80  SER80       0.2619
     94  O         29.4240   20.8030   22.4870 O.2    80  SER80      -0.2717
     95  CB        32.1450   20.2400   21.0290 C.3    80  SER80       0.2103
     96  OG        32.9460   21.1550   21.7530 O.3    80  SER80      -0.2182
     97  N         30.9530   20.4990   24.1170 N.am   81  GLY81      -0.1942
     98  CA        30.2650   21.3510   25.0640 C.3    81  GLY81       0.2014
     99  C         31.2680   21.9870   26.0080 C.2    81  GLY81       0.2638
    100  O         32.4450   22.1670   25.6610 O.2    81  GLY81      -0.2714
    101  N         30.8090   22.3170   27.2090 N.am   82  ASN82      -0.1972
    102  CA        31.6590   22.9400   28.2170 C.3    82  ASN82       0.1688
    103  C         31.0360   22.5900   29.5630 C.2    82  ASN82       0.2292
    104  O         29.8860   22.9500   29.8320 O.2    82  ASN82      -0.2864
    105  CB        31.6770   24.4600   28.0100 C.3    82  ASN82       0.1181
    106  CG        32.6630   25.1610   28.9150 C.2    82  ASN82       0.2629
    107  OD1       32.9430   24.6970   30.0140 O.2    82  ASN82      -0.2716
    108  ND2       33.1790   26.2980   28.4650 N.am   82  ASN82      -0.0877
    109  N         28.6580   24.3100   32.0490 N.3    85  TRP85      -0.1241
    110  CA        27.2070   24.2190   31.9270 C.3    85  TRP85       0.1605
    111  C         26.5530   23.1030   32.7410 C.2    85  TRP85       0.2264
    112  O         25.3550   22.8790   32.6310 O.2    85  TRP85      -0.2867
    113  CB        26.8210   24.0850   30.4570 C.3    85  TRP85       0.0550
    114  CG        26.5410   25.3990   29.8050 C.ar   85  TRP85       0.0003
    115  CD1       25.3150   25.9750   29.6180 C.ar   85  TRP85       0.0946
    116  CD2       27.5020   26.3090   29.2520 C.ar   85  TRP85       0.0152
    117  NE1       25.4530   27.1830   28.9750 N.ar   85  TRP85      -0.2442
    118  CE2       26.7840   27.4150   28.7420 C.ar   85  TRP85       0.0810
    119  CE3       28.9000   26.2970   29.1370 C.ar   85  TRP85       0.0012
    120  CZ2       27.4160   28.5030   28.1270 C.ar   85  TRP85       0.0191
    121  CZ3       29.5330   27.3850   28.5230 C.ar   85  TRP85       0.0001
    122  CH2       28.7860   28.4720   28.0260 C.ar   85  TRP85       0.0015
    123  N         23.7600   20.4980   31.6380 N.3    88  ASN88      -0.1225
    124  CA        23.4980   20.7610   30.2350 C.3    88  ASN88       0.1785
    125  C         24.7320   20.4910   29.3870 C.2    88  ASN88       0.2597
    126  O         24.7280   20.7530   28.1950 O.2    88  ASN88      -0.2718
    127  CB        23.0400   22.2070   30.0280 C.3    88  ASN88       0.1169
    128  CG        21.5560   22.4020   30.3300 C.2    88  ASN88       0.2627
    129  OD1       20.7200   21.5840   29.9380 O.2    88  ASN88      -0.2716
    130  ND2       21.2250   23.4970   31.0130 N.am   88  ASN88      -0.0877
    131  N         25.7850   19.9610   29.9970 N.am   89  PHE89      -0.1962
    132  CA        27.0150   19.6750   29.2630 C.3    89  PHE89       0.1771
    133  C         26.8070   18.7850   28.0360 C.2    89  PHE89       0.2619
    134  O         26.3600   17.6430   28.1580 O.2    89  PHE89      -0.2715
    135  CB        28.0450   19.0090   30.1740 C.3    89  PHE89       0.0574
    136  CG        29.2210   18.4350   29.4270 C.ar   89  PHE89      -0.0200
    137  CD1       30.0530   19.2570   28.6800 C.ar   89  PHE89      -0.0042
    138  CD2       29.4750   17.0700   29.4420 C.ar   89  PHE89      -0.0042
    139  CE1       31.1200   18.7330   27.9590 C.ar   89  PHE89      -0.0003
    140  CE2       30.5450   16.5340   28.7200 C.ar   89  PHE89      -0.0003
    141  CZ        31.3660   17.3750   27.9780 C.ar   89  PHE89      -0.0000
    142  N         27.1460   19.3160   26.8630 N.am   90  ALA90      -0.1977
    143  CA        27.0320   18.6010   25.5920 C.3    90  ALA90       0.1597
    144  C         25.7240   17.8210   25.4450 C.2    90  ALA90       0.2287
    145  O         25.7000   16.7540   24.8220 O.2    90  ALA90      -0.2864
    146  CB        28.2250   17.6540   25.4310 C.3    90  ALA90       0.0319
    147  N         35.0190   21.6840   24.5440 N.3   110  LEU110     -0.1245
    148  CA        35.6590   22.5490   23.5610 C.3   110  LEU110      0.1561
    149  C         36.2910   21.7990   22.3840 C.2   110  LEU110      0.2260
    150  O         35.6140   21.0320   21.7040 O.2   110  LEU110     -0.2867
    151  CB        36.6970   23.4260   24.2810 C.3   110  LEU110      0.0270
    152  CG        36.1340   24.1110   25.5410 C.3   110  LEU110      0.0019
    153  CD1       37.2320   24.9000   26.2300 C.3   110  LEU110      0.0001
    154  CD2       34.9640   25.0290   25.1770 C.3   110  LEU110      0.0001
@<TRIPOS>BOND
     1     4     3    2
     2     1     2    1
     3     5     2    1
     4     5     6    1
     5     3     2    1
     6     3     7   am
     7    10     9    2
     8    38    37    2
     9     8     7    1
    10     8     9    1
    11     8    11    1
    12    40    39    1
    13    37    36    1
    14    24    23    1
    15    24    25    1
    16     9    16   am
    17    26    25    2
    18    23    18   am
    19    53    52    1
    20    12    11    1
    21    12    13    1
    22    39    36    1
    23    39    41    1
    24    51    52   ar
    25    51    49   ar
    26    25    27   am
    27    36    35    1
    28    14    13    1
    29    14    15    1
    30    16    17    1
    31    18    17    1
    32    18    19    2
    33    52    50   ar
    34    49    47   ar
    35    17    20    1
    36    35    29   am
    37    27    28    1
    38    29    30    2
    39    29    28    1
    40    50    48   ar
    41    42    43    1
    42    28    31    1
    43    47    48   ar
    44    47    46    1
    45    20    22    1
    46    20    21    1
    47    46    43    1
    48    43    44    1
    49    31    32    1
    50    45    44    2
    51    44    54   am
    52    33    32    2
    53    32    34   am
    54    67    65    1
    55    95    96    1
    56    95    92    1
    57    65    66    1
    58    65    62    1
    59    91    92    1
    60    54    55    1
    61   150   149    2
    62    92    93    1
    63    55    56    1
    64    55    58    1
    65    61    56   am
    66    61    62    1
    67    56    57    2
    68    62    63    1
    69   149   148    1
    70    94    93    2
    71    93    97   am
    72    75    73   am
    73    59    58    1
    74   148   151    1
    75   148   147    1
    76    58    60    1
    77    63    68   am
    78    63    64    2
    79    68    69    1
    80    97    98    1
    81    73    72    1
    82    73    74    2
    83   151   152    1
    84    72    69    1
    85   145   144    2
    86    90    89    2
    87    71    70    2
    88    69    70    1
    89    98    99    1
    90    89    88    1
    91   154   152    1
    92   146   143    1
    93   144   143    1
    94   152   153    1
    95   143   142    1
    96   100    99    2
    97    70    76   am
    98    99   101   am
    99    88    87    1
   100   142   133   am
   101    87    78   am
   102    83    85   ar
   103    83    81   ar
   104    76    77    1
   105    85    86   ar
   106   101   102    1
   107    78    79    2
   108    78    77    1
   109    77    80    1
   110    80    81    1
   111    81    82   ar
   112   139   141   ar
   113   139   137   ar
   114    86    84   ar
   115   141   140   ar
   116   105   102    1
   117   105   106    1
   118   122   120   ar
   119   122   121   ar
   120   133   134    2
   121   133   132    1
   122   120   118   ar
   123   126   125    2
   124   102   103    1
   125   108   106   am
   126   121   119   ar
   127   137   136   ar
   128   140   138   ar
   129   118   117   ar
   130   118   116   ar
   131    82    84   ar
   132   106   107    2
   133   117   115   ar
   134   119   116   ar
   135   116   114   ar
   136   132   131    1
   137   132   135    1
   138   125   131   am
   139   125   124    1
   140   136   138   ar
   141   136   135    1
   142   103   104    2
   143   115   114   ar
   144   114   113    1
   145   129   128    2
   146   127   124    1
   147   127   128    1
   148   124   123    1
   149   128   130   am
   150   113   110    1
   151   110   109    1
   152   110   111    1
   153   112   111    2
