@<TRIPOS>MOLECULE
tmp/1rlpA00.pdb
 126 127 0 0 0
SMALL
GASTEIGER

@<TRIPOS>ATOM
      1  N         -2.0500    0.8100  -12.3790 N.3     6  TYR6       -0.1227
      2  CA        -2.5310    1.3540  -11.0780 C.3     6  TYR6        0.1736
      3  C         -2.0710    2.8030  -10.9170 C.2     6  TYR6        0.2595
      4  O         -1.0090    3.1830  -11.3670 O.2     6  TYR6       -0.2718
      5  CB        -1.9660    0.5170   -9.9230 C.3     6  TYR6        0.0548
      6  CG        -1.9410   -0.9710  -10.2980 C.ar    6  TYR6       -0.0200
      7  CD1       -2.7480   -1.4680  -11.3030 C.ar    6  TYR6       -0.0009
      8  CD2       -1.0980   -1.8380   -9.6320 C.ar    6  TYR6       -0.0009
      9  CE1       -2.7100   -2.8050  -11.6380 C.ar    6  TYR6        0.0417
     10  CE2       -1.0620   -3.1760   -9.9660 C.ar    6  TYR6        0.0417
     11  CZ        -1.8670   -3.6700  -10.9720 C.ar    6  TYR6        0.1957
     12  OH        -1.8290   -5.0090  -11.3070 O.3     6  TYR6       -0.2866
     13  N         -2.8660    3.6150  -10.2750 N.am    7  ASP7       -0.1960
     14  CA        -2.4820    5.0370  -10.0800 C.3     7  ASP7        0.1840
     15  C         -1.2800    5.1040   -9.1380 C.2     7  ASP7        0.2622
     16  O         -1.2120    4.3960   -8.1540 O.2     7  ASP7       -0.2715
     17  CB        -3.6570    5.7980   -9.4660 C.3     7  ASP7        0.1450
     18  CG        -4.3150    4.9380   -8.3840 C.2     7  ASP7        0.3671
     19  OD1       -3.6570    4.0380   -7.8880 O.co2   7  ASP7       -0.2456
     20  OD2       -5.4650    5.1940   -8.0690 O.co2   7  ASP7       -0.2456
     21  N         -0.3320    5.9500   -9.4280 N.am    8  TYR8       -0.1974
     22  CA         0.8640    6.0590   -8.5470 C.3     8  TYR8        0.1639
     23  C          0.7670    7.3320   -7.7070 C.2     8  TYR8        0.2290
     24  O          0.7650    8.4310   -8.2270 O.2     8  TYR8       -0.2864
     25  CB         2.1230    6.1050   -9.4130 C.3     8  TYR8        0.0560
     26  CG         3.3530    6.3440   -8.5370 C.ar    8  TYR8       -0.0198
     27  CD1        3.4240    5.8150   -7.2650 C.ar    8  TYR8       -0.0009
     28  CD2        4.4170    7.0810   -9.0160 C.ar    8  TYR8       -0.0009
     29  CE1        4.5440    6.0180   -6.4850 C.ar    8  TYR8        0.0417
     30  CE2        5.5360    7.2830   -8.2360 C.ar    8  TYR8        0.0417
     31  CZ         5.6090    6.7530   -6.9650 C.ar    8  TYR8        0.1957
     32  OH         6.7300    6.9540   -6.1860 O.3     8  TYR8       -0.2866
     33  N          2.8990    8.5150   -4.8190 N.3    10  SER10      -0.1202
     34  CA         3.9970    8.4560   -3.8140 C.3    10  SER10       0.2020
     35  C          3.7750    9.5310   -2.7500 C.2    10  SER10       0.2619
     36  O          2.7450   10.1750   -2.7090 O.2    10  SER10      -0.2717
     37  CB         5.3380    8.6990   -4.5080 C.3    10  SER10       0.2103
     38  OG         6.2900    7.7540   -4.0430 O.3    10  SER10      -0.2182
     39  N          4.7340    9.7300   -1.8890 N.am   11  ARG11      -0.1965
     40  CA         4.5810   10.7620   -0.8270 C.3    11  ARG11       0.1729
     41  C          5.7840   11.7060   -0.8620 C.2    11  ARG11       0.2616
     42  O          6.2340   12.1940    0.1560 O.2    11  ARG11      -0.2715
     43  CB         4.5030   10.0800    0.5410 C.3    11  ARG11       0.0348
     44  CG         3.7970    8.7300    0.3980 C.3    11  ARG11       0.0492
     45  CD         4.8360    7.6070    0.4090 C.3    11  ARG11       0.2205
     46  NE         4.1530    6.3000    0.6310 N.pl3  11  ARG11      -0.0865
     47  CZ         4.8570    5.2120    0.7970 C.cat  11  ARG11       0.5346
     48  NH1        6.1620    5.2630    0.7690 N.pl3  11  ARG11       0.1354
     49  NH2        4.2540    4.0710    0.9910 N.pl3  11  ARG11       0.1354
     50  N          6.3100   11.9690   -2.0280 N.am   12  THR12      -0.1951
     51  CA         7.4840   12.8810   -2.1300 C.3    12  THR12       0.1897
     52  C          7.2040   13.9600   -3.1770 C.2    12  THR12       0.2313
     53  O          6.3210   13.8260   -4.0010 O.2    12  THR12      -0.2863
     54  CB         8.7200   12.0790   -2.5450 C.3    12  THR12       0.1794
     55  OG1        8.6530   11.7970   -3.9360 O.3    12  THR12      -0.2208
     56  CG2        8.7680   10.7690   -1.7580 C.3    12  THR12       0.0378
     57  N          9.3170   14.7850   -5.4110 N.3    14  THR14      -0.1203
     58  CA        10.1750   14.4910   -6.5950 C.3    14  THR14       0.1994
     59  C          9.3960   13.6290   -7.5920 C.2    14  THR14       0.2617
     60  O          8.9380   14.1060   -8.6110 O.2    14  THR14      -0.2717
     61  CB        11.4310   13.7440   -6.1410 C.3    14  THR14       0.1784
     62  OG1       11.5790   13.8820   -4.7340 O.3    14  THR14      -0.2211
     63  CG2       12.6570   14.3270   -6.8450 C.3    14  THR14       0.0376
     64  N          9.2410   12.3640   -7.3080 N.am   15  ASP15      -0.1973
     65  CA         8.4910   11.4790   -8.2440 C.3    15  ASP15       0.1709
     66  C          7.0780   12.0300   -8.4350 C.2    15  ASP15       0.2293
     67  O          6.4000   12.3680   -7.4860 O.2    15  ASP15      -0.2864
     68  CB         8.4100   10.0630   -7.6640 C.3    15  ASP15       0.1436
     69  CG         9.7240    9.7140   -6.9620 C.2    15  ASP15       0.3671
     70  OD1        9.8510   10.0340   -5.7910 O.co2  15  ASP15      -0.2456
     71  OD2       10.5800    9.1290   -7.6050 O.co2  15  ASP15      -0.2456
     72  N         13.3040   -1.2670  -10.9180 N.3    33  ASP33      -0.1225
     73  CA        11.8160   -1.2520  -10.8410 C.3    33  ASP33       0.1805
     74  C         11.3040    0.1690  -11.0900 C.2    33  ASP33       0.2597
     75  O         10.3420    0.3760  -11.8020 O.2    33  ASP33      -0.2718
     76  CB        11.3710   -1.7170   -9.4530 C.3    33  ASP33       0.1424
     77  CG        10.9390   -3.1830   -9.5210 C.2    33  ASP33       0.3668
     78  OD1       11.8060   -4.0390   -9.4640 O.co2  33  ASP33      -0.2456
     79  OD2        9.7480   -3.4250   -9.6280 O.co2  33  ASP33      -0.2456
     80  N         11.9400    1.1490  -10.5110 N.am   34  TRP34      -0.1976
     81  CA        11.4880    2.5550  -10.7150 C.3    34  TRP34       0.1640
     82  C         12.1270    3.1200  -11.9860 C.2    34  TRP34       0.2290
     83  O         13.3330    3.2230  -12.0920 O.2    34  TRP34      -0.2864
     84  CB        11.9060    3.4030   -9.5130 C.3    34  TRP34       0.0576
     85  CG        11.0880    2.9900   -8.2890 C.ar   34  TRP34       0.0006
     86  CD1       11.4070    1.9900   -7.4490 C.ar   34  TRP34       0.0946
     87  CD2        9.9520    3.5640   -7.9000 C.ar   34  TRP34       0.0152
     88  NE1       10.4170    2.0020   -6.5560 N.ar   34  TRP34      -0.2442
     89  CE2        9.4670    2.9500   -6.7610 C.ar   34  TRP34       0.0810
     90  CE3        9.2620    4.6190   -8.4620 C.ar   34  TRP34       0.0012
     91  CZ2        8.2940    3.3910   -6.1860 C.ar   34  TRP34       0.0191
     92  CZ3        8.0870    5.0600   -7.8850 C.ar   34  TRP34       0.0001
     93  CH2        7.6040    4.4450   -6.7470 C.ar   34  TRP34       0.0015
     94  N          6.6570    3.9110  -10.9850 N.2    49  PRO49      -0.2571
     95  CA         7.0540    2.5610  -10.5460 C.3    49  PRO49       0.2026
     96  C          6.7770    1.5480  -11.6620 C.2    49  PRO49       0.2684
     97  O          6.0800    1.8360  -12.6140 O.2    49  PRO49      -0.2709
     98  CB         6.1790    2.2720   -9.3180 C.2    49  PRO49       0.0085
     99  CG         5.2380    3.4880   -9.1140 C.2    49  PRO49       0.0180
    100  CD         5.5710    4.5250  -10.1990 C.2    49  PRO49       0.0938
    101  N          7.3160    0.3640  -11.5540 N.am   50  SER50      -0.1931
    102  CA         7.0810   -0.6610  -12.6120 C.3    50  SER50       0.2055
    103  C          5.8410   -1.4960  -12.2720 C.2    50  SER50       0.2643
    104  O          5.1200   -1.9360  -13.1460 O.2    50  SER50      -0.2714
    105  CB         8.3090   -1.5740  -12.7110 C.3    50  SER50       0.2130
    106  OG         7.9350   -2.9200  -12.4490 O.3    50  SER50      -0.2179
    107  N          5.5860   -1.7180  -11.0110 N.am   51  ASN51      -0.1957
    108  CA         4.3940   -2.5260  -10.6230 C.3    51  ASN51       0.1819
    109  C          3.1080   -1.7330  -10.8790 C.2    51  ASN51       0.2621
    110  O          2.0180   -2.2220  -10.6620 O.2    51  ASN51      -0.2715
    111  CB         4.4830   -2.8800   -9.1370 C.3    51  ASN51       0.1195
    112  CG         5.2040   -4.2190   -8.9730 C.2    51  ASN51       0.2630
    113  OD1        5.0050   -4.9140   -7.9960 O.2    51  ASN51      -0.2716
    114  ND2        6.0400   -4.6140   -9.8940 N.am   51  ASN51      -0.0877
    115  N          3.2200   -0.5160  -11.3370 N.am   52  TYR52      -0.1974
    116  CA         1.9930    0.2890  -11.5990 C.3    52  TYR52       0.1639
    117  C          1.8010    0.4770  -13.1060 C.2    52  TYR52       0.2290
    118  O          0.8340    1.0690  -13.5440 O.2    52  TYR52      -0.2864
    119  CB         2.1290    1.6580  -10.9270 C.3    52  TYR52       0.0560
    120  CG         1.5830    1.5820   -9.4980 C.ar   52  TYR52      -0.0198
    121  CD1        1.4970    0.3700   -8.8440 C.ar   52  TYR52      -0.0009
    122  CD2        1.1720    2.7250   -8.8440 C.ar   52  TYR52      -0.0009
    123  CE1        1.0080    0.3020   -7.5560 C.ar   52  TYR52       0.0417
    124  CE2        0.6830    2.6570   -7.5540 C.ar   52  TYR52       0.0417
    125  CZ         0.5970    1.4440   -6.9010 C.ar   52  TYR52       0.1957
    126  OH         0.1060    1.3760   -5.6120 O.3    52  TYR52      -0.2866
@<TRIPOS>BOND
     1   118   117    2
     2   104   103    2
     3   117   116    1
     4   105   102    1
     5   105   106    1
     6    97    96    2
     7   102   103    1
     8   102   101    1
     9     1     2    1
    10   103   107   am
    11    83    82    2
    12    82    81    1
    13    75    74    2
    14    96   101   am
    15    96    95    1
    16     9     7   ar
    17     9    11   ar
    18   116   115    1
    19   116   119    1
    20     4     3    2
    21   115   109   am
    22    12    11    1
    23     7     6   ar
    24    74    73    1
    25    74    80   am
    26     2     3    1
    27     2     5    1
    28   107   108    1
    29    94    95    1
    30    94   100    2
    31    11    10   ar
    32   119   120    1
    33    72    73    1
    34     3    13   am
    35   109   110    2
    36   109   108    1
    37    73    76    1
    38    81    80    1
    39    81    84    1
    40   108   111    1
    41    95    98    1
    42     6     5    1
    43     6     8   ar
    44    13    14    1
    45   100    99    1
    46    14    17    1
    47    14    15    1
    48    10     8   ar
    49   114   112   am
    50    79    77   ar
    51    77    78   ar
    52    77    76    1
    53    84    85    1
    54   120   122   ar
    55   120   121   ar
    56    17    18    1
    57    21    15   am
    58    21    22    1
    59    25    22    1
    60    25    26    1
    61    98    99    2
    62    15    16    2
    63   111   112    1
    64    28    26   ar
    65    28    30   ar
    66   112   113    2
    67   122   124   ar
    68   121   123   ar
    69    60    59    2
    70    22    23    1
    71    26    27   ar
    72    90    87   ar
    73    90    92   ar
    74    66    65    1
    75    66    67    2
    76    18    20   ar
    77    18    19   ar
    78    85    87   ar
    79    85    86   ar
    80    65    68    1
    81    65    64    1
    82    30    31   ar
    83    24    23    2
    84    87    89   ar
    85    92    93   ar
    86    68    69    1
    87    71    69   ar
    88    59    64   am
    89    59    58    1
    90   123   125   ar
    91   124   125   ar
    92    86    88   ar
    93    27    29   ar
    94    31    29   ar
    95    31    32    1
    96    69    70   ar
    97   125   126    1
    98    63    61    1
    99    89    88   ar
   100    89    91   ar
   101    93    91   ar
   102    58    61    1
   103    58    57    1
   104    61    62    1
   105    33    34    1
   106    37    38    1
   107    37    34    1
   108    53    52    2
   109    55    54    1
   110    34    35    1
   111    52    51    1
   112    35    36    2
   113    35    39   am
   114    54    51    1
   115    54    56    1
   116    51    50    1
   117    50    41   am
   118    39    40    1
   119    41    40    1
   120    41    42    2
   121    40    43    1
   122    44    45    1
   123    44    43    1
   124    45    46    1
   125    46    47    2
   126    48    47    1
   127    47    49    1
