@<TRIPOS>MOLECULE
tmp/1rlzA00.pdb
 191 180 0 0 0
SMALL
GASTEIGER

@<TRIPOS>ATOM
      1  N         11.9150  -10.5610   43.9870 N.3    79  THR79      -0.1203
      2  CA        12.7510  -10.0370   42.9220 C.3    79  THR79       0.1994
      3  C         13.9290   -9.2630   43.5140 C.2    79  THR79       0.2619
      4  O         13.8990   -8.8660   44.6700 O.2    79  THR79      -0.2717
      5  CB        11.9190   -9.1330   41.9850 C.3    79  THR79       0.1784
      6  OG1       11.2960   -8.0780   42.7360 O.3    79  THR79      -0.2211
      7  CG2       10.8460   -9.9600   41.3030 C.3    79  THR79       0.0376
      8  N         14.9630   -9.0500   42.7090 N.am   80  SER80      -0.1937
      9  CA        16.1720   -8.3580   43.1490 C.3    80  SER80       0.2055
     10  C         15.9930   -7.0010   43.8010 C.2    80  SER80       0.2643
     11  O         16.5950   -6.7360   44.8330 O.2    80  SER80      -0.2714
     12  CB        17.1450   -8.2150   41.9760 C.3    80  SER80       0.2130
     13  OG        17.5340   -9.4920   41.4910 O.3    80  SER80      -0.2179
     14  N         15.1720   -6.1400   43.2090 N.am   81  ASN81      -0.1957
     15  CA        14.9720   -4.7930   43.7550 C.3    81  ASN81       0.1819
     16  C         14.4410   -4.7470   45.1870 C.2    81  ASN81       0.2621
     17  O         14.5820   -3.7320   45.8730 O.2    81  ASN81      -0.2715
     18  CB        14.0480   -3.9660   42.8450 C.3    81  ASN81       0.1195
     19  CG        12.6700   -4.5610   42.7250 C.2    81  ASN81       0.2630
     20  OD1       11.6680   -3.8860   42.9640 O.2    81  ASN81      -0.2716
     21  ND2       12.6060   -5.8360   42.3500 N.am   81  ASN81      -0.0877
     22  N         13.8280   -5.8350   45.6370 N.am   82  LEU82      -0.1977
     23  CA        13.2970   -5.8820   46.9890 C.3    82  LEU82       0.1596
     24  C         14.4130   -6.1150   48.0250 C.2    82  LEU82       0.2287
     25  O         14.2480   -5.7990   49.2030 O.2    82  LEU82      -0.2864
     26  CB        12.2200   -6.9630   47.0720 C.3    82  LEU82       0.0297
     27  CG        10.7340   -6.5530   47.0090 C.3    82  LEU82       0.0022
     28  CD1       10.5610   -5.0850   46.6150 C.3    82  LEU82       0.0001
     29  CD2        9.9940   -7.4840   46.0680 C.3    82  LEU82       0.0001
     30  N         17.3230   -4.7780   47.4630 N.3    84  SER84      -0.1217
     31  CA        17.9690   -3.4660   47.3800 C.3    84  SER84       0.1889
     32  C         17.2690   -2.5530   48.3890 C.2    84  SER84       0.2288
     33  O         17.9060   -1.7340   49.0400 O.2    84  SER84      -0.2866
     34  CB        17.8000   -2.8320   45.9940 C.3    84  SER84       0.2089
     35  OG        18.4140   -3.5920   44.9770 O.3    84  SER84      -0.2183
     36  N         16.3410  -13.7700   42.3350 N.3   106  THR106     -0.1203
     37  CA        17.1790  -13.5750   41.1740 C.3   106  THR106      0.1994
     38  C         18.5880  -13.2170   41.6460 C.2   106  THR106      0.2618
     39  O         18.8130  -13.0610   42.8430 O.2   106  THR106     -0.2717
     40  CB        16.5830  -12.4640   40.2830 C.3   106  THR106      0.1784
     41  OG1       16.2280  -11.3380   41.0860 O.3   106  THR106     -0.2211
     42  CG2       15.3310  -12.9720   39.5830 C.3   106  THR106      0.0376
     43  N         19.5230  -13.0730   40.7100 N.am  107  ALA107     -0.1965
     44  CA        20.9090  -12.7540   41.0270 C.3   107  ALA107      0.1728
     45  C         21.0690  -11.5190   41.8970 C.2   107  ALA107      0.2616
     46  O         21.7950  -11.5520   42.9000 O.2   107  ALA107     -0.2715
     47  CB        21.7200  -12.6030   39.7410 C.3   107  ALA107      0.0334
     48  N         20.4080  -10.4320   41.5130 N.am  108  GLY108     -0.1955
     49  CA        20.4840   -9.2020   42.2840 C.3   108  GLY108      0.1869
     50  C         20.0190   -9.4650   43.6970 C.2   108  GLY108      0.2309
     51  O         20.5670   -8.9360   44.6700 O.2   108  GLY108     -0.2863
     52  N         23.2990  -11.2660   45.4540 N.3   111  GLU111     -0.1231
     53  CA        24.4570  -10.3920   45.6290 C.3   111  GLU111      0.1699
     54  C         24.2910   -9.1410   46.4620 C.2   111  GLU111      0.2592
     55  O         25.1780   -8.7930   47.2300 O.2   111  GLU111     -0.2718
     56  CB        25.0240  -10.0130   44.2630 C.3   111  GLU111      0.0402
     57  CG        24.0130   -9.4070   43.3240 C.3   111  GLU111      0.1161
     58  CD        24.4010   -9.5890   41.8670 C.2   111  GLU111      0.3649
     59  OE1       24.9230  -10.6760   41.5170 O.co2 111  GLU111     -0.2457
     60  OE2       24.1710   -8.6570   41.0670 O.co2 111  GLU111     -0.2457
     61  N         23.1670   -8.4600   46.3260 N.am  112  GLU112     -0.1979
     62  CA        22.9680   -7.2260   47.0690 C.3   112  GLU112      0.1602
     63  C         22.7760   -7.3790   48.5690 C.2   112  GLU112      0.2287
     64  O         22.9350   -6.4120   49.3090 O.2   112  GLU112     -0.2864
     65  CB        21.8260   -6.4230   46.4440 C.3   112  GLU112      0.0415
     66  CG        22.2300   -5.8610   45.1020 C.3   112  GLU112      0.1163
     67  CD        21.1160   -5.1110   44.4220 C.2   112  GLU112      0.3649
     68  OE1       20.5610   -4.1750   45.0500 O.co2 112  GLU112     -0.2457
     69  OE2       20.8030   -5.4490   43.2540 O.co2 112  GLU112     -0.2457
     70  N         18.9190    2.6890   41.2350 N.3   141  ILE141     -0.1245
     71  CA        17.9400    1.6040   41.3180 C.3   141  ILE141      0.1561
     72  C         16.6110    2.1980   41.7940 C.2   141  ILE141      0.2260
     73  O         16.3430    2.2080   42.9970 O.2   141  ILE141     -0.2867
     74  CB        18.3570    0.5090   42.3380 C.3   141  ILE141      0.0252
     75  CG1       19.6640   -0.1720   41.8990 C.3   141  ILE141      0.0019
     76  CG2       17.2270   -0.5270   42.4820 C.3   141  ILE141      0.0019
     77  CD1       20.1270   -1.2530   42.8900 C.3   141  ILE141      0.0001
     78  N         30.5580   -2.4020   44.4410 N.3   151  TYR151     -0.1241
     79  CA        30.8480   -3.5820   43.6490 C.3   151  TYR151      0.1605
     80  C         32.3460   -3.8520   43.5960 C.2   151  TYR151      0.2264
     81  O         32.7670   -5.0120   43.4590 O.2   151  TYR151     -0.2867
     82  CB        30.2400   -3.4060   42.2590 C.3   151  TYR151      0.0534
     83  CG        28.7280   -3.3250   42.3130 C.ar  151  TYR151     -0.0201
     84  CD1       27.9700   -4.4570   42.6210 C.ar  151  TYR151     -0.0009
     85  CD2       28.0510   -2.1200   42.0800 C.ar  151  TYR151     -0.0009
     86  CE1       26.5760   -4.4030   42.6890 C.ar  151  TYR151      0.0417
     87  CE2       26.6450   -2.0510   42.1460 C.ar  151  TYR151      0.0417
     88  CZ        25.9200   -3.2050   42.4440 C.ar  151  TYR151      0.1957
     89  OH        24.5380   -3.2040   42.4430 O.3   151  TYR151     -0.2866
     90  N         19.2170  -18.1640   37.2860 N.3   210  ALA210     -0.1245
     91  CA        20.0190  -17.2440   36.4660 C.3   210  ALA210      0.1562
     92  C         20.9860  -16.4610   37.3710 C.2   210  ALA210      0.2260
     93  O         21.1360  -15.2490   37.2330 O.2   210  ALA210     -0.2867
     94  CB        19.0970  -16.2700   35.7080 C.3   210  ALA210      0.0290
     95  N         23.2180  -13.5160   36.0710 N.3   213  ASP213     -0.1225
     96  CA        22.7170  -12.2380   35.5400 C.3   213  ASP213      0.1805
     97  C         22.9080  -11.0590   36.5150 C.2   213  ASP213      0.2598
     98  O         21.9370  -10.4770   37.0020 O.2   213  ASP213     -0.2718
     99  CB        21.2250  -12.3850   35.1600 C.3   213  ASP213      0.1424
    100  CG        20.6530  -11.1420   34.4670 C.2   213  ASP213      0.3668
    101  OD1       19.4700  -10.8200   34.7040 O.co2 213  ASP213     -0.2456
    102  OD2       21.3690  -10.4840   33.6770 O.co2 213  ASP213     -0.2456
    103  N         24.1570  -10.7010   36.7940 N.am  214  GLY214     -0.1957
    104  CA        24.4120   -9.6050   37.7100 C.3   214  GLY214      0.1869
    105  C         25.8860   -9.4100   38.0310 C.2   214  GLY214      0.2309
    106  O         26.7680   -9.8110   37.2650 O.2   214  GLY214     -0.2863
    107  N          6.6840  -12.2260   45.9750 N.3   256  LEU256     -0.1231
    108  CA         6.7520  -10.7730   45.7860 C.3   256  LEU256      0.1693
    109  C          7.3650  -10.5050   44.4060 C.2   256  LEU256      0.2593
    110  O          8.5050  -10.8840   44.1390 O.2   256  LEU256     -0.2718
    111  CB         7.6100  -10.1430   46.8840 C.3   256  LEU256      0.0284
    112  CG         7.3850  -10.7570   48.2640 C.3   256  LEU256      0.0019
    113  CD1        8.3090  -10.0980   49.2620 C.3   256  LEU256      0.0001
    114  CD2        5.9430  -10.5900   48.7010 C.3   256  LEU256      0.0001
    115  N          6.6030   -9.8700   43.5260 N.am  257  GLY257     -0.1942
    116  CA         7.1120   -9.5970   42.1940 C.3   257  GLY257      0.2014
    117  C          6.7790  -10.7350   41.2460 C.2   257  GLY257      0.2639
    118  O          6.0260  -11.6530   41.5930 O.2   257  GLY257     -0.2714
    119  N          7.3350  -10.6840   40.0430 N.am  258  GLY258     -0.1939
    120  CA         7.0680  -11.7270   39.0660 C.3   258  GLY258      0.2014
    121  C          8.3140  -12.3490   38.4550 C.2   258  GLY258      0.2639
    122  O          9.2780  -12.6400   39.1710 O.2   258  GLY258     -0.2714
    123  N          8.2860  -12.5690   37.1390 N.am  259  GLY259     -0.1939
    124  CA         9.4220  -13.1490   36.4340 C.3   259  GLY259      0.2014
    125  C          9.7730  -14.5800   36.8110 C.2   259  GLY259      0.2638
    126  O          8.9350  -15.3250   37.3290 O.2   259  GLY259     -0.2714
    127  N         11.0150  -14.9640   36.5270 N.am  260  VAL260     -0.1977
    128  CA        11.5350  -16.2960   36.8240 C.3   260  VAL260      0.1596
    129  C         11.1520  -16.7620   38.2390 C.2   260  VAL260      0.2287
    130  O         10.6410  -17.8590   38.4180 O.2   260  VAL260     -0.2864
    131  CB        13.1070  -16.3190   36.7030 C.3   260  VAL260      0.0276
    132  CG1       13.6680  -17.7390   36.9520 C.3   260  VAL260      0.0022
    133  CG2       13.5220  -15.8370   35.3340 C.3   260  VAL260      0.0022
    134  N          2.0870  -10.5500   45.7900 N.3   281  ILE281     -0.1231
    135  CA         2.1010   -9.1130   45.9280 C.3   281  ILE281      0.1692
    136  C          2.9610   -8.6280   44.7780 C.2   281  ILE281      0.2592
    137  O          4.1780   -8.7630   44.7940 O.2   281  ILE281     -0.2718
    138  CB         2.7180   -8.6270   47.2740 C.3   281  ILE281      0.0266
    139  CG1        1.9620   -9.2310   48.4610 C.3   281  ILE281      0.0019
    140  CG2        2.6560   -7.0940   47.3470 C.3   281  ILE281      0.0020
    141  CD1        2.4850   -8.7740   49.8150 C.3   281  ILE281      0.0001
    142  N          2.3240   -8.1320   43.7350 N.am  282  ASN282     -0.1960
    143  CA         3.0980   -7.5910   42.6480 C.3   282  ASN282      0.1819
    144  C          2.2780   -6.5520   41.9070 C.2   282  ASN282      0.2622
    145  O          1.0520   -6.4410   42.0870 O.2   282  ASN282     -0.2715
    146  CB         3.6680   -8.6940   41.7210 C.3   282  ASN282      0.1195
    147  CG         2.6540   -9.2700   40.7590 C.2   282  ASN282      0.2630
    148  OD1        2.1250   -8.5690   39.9070 O.2   282  ASN282     -0.2716
    149  ND2        2.3950  -10.5600   40.8760 N.am  282  ASN282     -0.0877
    150  N          2.9780   -5.7760   41.0910 N.am  283  THR283     -0.1937
    151  CA         2.3650   -4.6980   40.3500 C.3   283  THR283      0.2028
    152  C          2.1730   -4.9930   38.8520 C.2   283  THR283      0.2642
    153  O          1.7920   -4.1120   38.0900 O.2   283  THR283     -0.2714
    154  CB         3.2230   -3.4560   40.5160 C.3   283  THR283      0.1808
    155  OG1        4.5010   -3.7170   39.9320 O.3   283  THR283     -0.2208
    156  CG2        3.4380   -3.1450   41.9900 C.3   283  THR283      0.0379
    157  N          2.4270   -6.2230   38.4290 N.am  284  ALA284     -0.1977
    158  CA         2.2740   -6.5790   37.0200 C.3   284  ALA284      0.1597
    159  C          0.7940   -6.6800   36.6240 C.2   284  ALA284      0.2287
    160  O         -0.0550   -7.0000   37.4600 O.2   284  ALA284     -0.2864
    161  CB         2.9840   -7.9100   36.7440 C.3   284  ALA284      0.0319
    162  N          4.4030  -12.8500   34.4180 N.3   292  SER292     -0.1217
    163  CA         4.5830  -11.9450   35.5490 C.3   292  SER292      0.1889
    164  C          3.2940  -11.2010   35.9290 C.2   292  SER292      0.2288
    165  O          3.0250  -10.9620   37.1110 O.2   292  SER292     -0.2866
    166  CB         5.6950  -10.9490   35.2190 C.3   292  SER292      0.2089
    167  OG         5.6560   -9.8480   36.1010 O.3   292  SER292     -0.2183
    168  N          0.0070   -4.0840   44.3270 N.3   316  ALA316     -0.1231
    169  CA         0.6680   -3.0110   45.0420 C.3   316  ALA316      0.1694
    170  C          2.1700   -3.2770   45.1770 C.2   316  ALA316      0.2592
    171  O          2.6360   -4.4150   45.0250 O.2   316  ALA316     -0.2718
    172  CB         0.0370   -2.8630   46.4130 C.3   316  ALA316      0.0304
    173  N          2.9060   -2.2000   45.4530 N.am  317  ASP317     -0.1960
    174  CA         4.3530   -2.2160   45.6610 C.3   317  ASP317      0.1840
    175  C          4.5740   -2.9540   46.9960 C.2   317  ASP317      0.2622
    176  O          4.0310   -2.5570   48.0300 O.2   317  ASP317     -0.2715
    177  CB         4.8530   -0.7600   45.7510 C.3   317  ASP317      0.1450
    178  CG         6.3760   -0.6420   45.7990 C.2   317  ASP317      0.3671
    179  OD1        7.0470   -1.5090   46.3890 O.co2 317  ASP317     -0.2456
    180  OD2        6.9100    0.3370   45.2580 O.co2 317  ASP317     -0.2456
    181  N          5.3600   -4.0270   46.9770 N.am  318  ALA318     -0.1963
    182  CA         5.6110   -4.8010   48.2010 C.3   318  ALA318      0.1728
    183  C          6.3800   -4.0480   49.2840 C.2   318  ALA318      0.2616
    184  O          6.2970   -4.4130   50.4540 O.2   318  ALA318     -0.2715
    185  CB         6.3440   -6.1070   47.8650 C.3   318  ALA318      0.0334
    186  N          7.1350   -3.0160   48.9070 N.am  319  SER319     -0.1950
    187  CA         7.9060   -2.2520   49.8880 C.3   319  SER319      0.1924
    188  C          6.9460   -1.6220   50.8920 C.2   319  SER319      0.2314
    189  O          7.2840   -1.3670   52.0550 O.2   319  SER319     -0.2863
    190  CB         8.7480   -1.1680   49.1970 C.3   319  SER319      0.2116
    191  OG         7.9450   -0.1880   48.5700 O.3   319  SER319     -0.2180
@<TRIPOS>BOND
     1   102   100   ar
     2   162   163    1
     3   100   101   ar
     4   100    99    1
     5    99    96    1
     6   166   163    1
     7   166   167    1
     8   133   131    1
     9    96    95    1
    10    96    97    1
    11   163   164    1
    12    94    91    1
    13   164   165    2
    14   124   125    1
    15   124   123    1
    16    91    90    1
    17    91    92    1
    18    97   103   am
    19    97    98    2
    20   127   125   am
    21   127   128    1
    22   159   158    1
    23   159   160    2
    24   131   128    1
    25   131   132    1
    26   161   158    1
    27   103   104    1
    28   125   126    2
    29   128   129    1
    30   158   157    1
    31   123   121   am
    32    93    92    2
    33   106   105    2
    34   104   105    1
    35   153   152    2
    36   129   130    2
    37   157   152   am
    38   121   120    1
    39   121   122    2
    40   152   151    1
    41   120   119    1
    42    42    40    1
    43    47    44    1
    44   148   147    2
    45   155   154    1
    46   119   117   am
    47    40    41    1
    48    40    37    1
    49   151   154    1
    50   151   150    1
    51   154   156    1
    52    43    44    1
    53    43    38   am
    54   147   149   am
    55   147   146    1
    56    44    45    1
    57    60    58   ar
    58   150   144   am
    59    37    38    1
    60    37    36    1
    61    70    71    1
    62   117   118    2
    63   117   116    1
    64     7     5    1
    65    71    72    1
    66    71    74    1
    67    13    12    1
    68    48    45   am
    69    48    49    1
    70    59    58   ar
    71    38    39    2
    72   146   143    1
    73    72    73    2
    74    58    57    1
    75    45    46    2
    76    75    74    1
    77    75    77    1
    78   144   145    2
    79   144   143    1
    80    12     9    1
    81     5     6    1
    82     5     2    1
    83    85    87   ar
    84    85    83   ar
    85    87    88   ar
    86   116   115    1
    87    82    83    1
    88    82    79    1
    89    49    50    1
    90    83    84   ar
    91    74    76    1
    92    21    19   am
    93    89    88    1
    94    88    86   ar
    95    84    86   ar
    96   143   142    1
    97     8     9    1
    98     8     3   am
    99    19    18    1
   100    19    20    2
   101    18    15    1
   102     2     3    1
   103     2     1    1
   104     9    10    1
   105    14    15    1
   106    14    10   am
   107    69    67   ar
   108    57    56    1
   109    81    80    2
   110     3     4    2
   111   115   109   am
   112    80    79    1
   113    79    78    1
   114    50    51    2
   115   142   136   am
   116    15    16    1
   117    10    11    2
   118   110   109    2
   119    56    53    1
   120   168   169    1
   121   109   108    1
   122    67    68   ar
   123    67    66    1
   124   136   137    2
   125   136   135    1
   126    35    34    1
   127   171   170    2
   128   169   170    1
   129   169   172    1
   130    66    65    1
   131   170   173   am
   132    16    22   am
   133    16    17    2
   134   180   178   ar
   135   173   174    1
   136    52    53    1
   137    53    54    1
   138    22    23    1
   139   174   177    1
   140   174   175    1
   141   177   178    1
   142   108   107    1
   143   108   111    1
   144   134   135    1
   145   178   179   ar
   146   135   138    1
   147    34    31    1
   148    29    27    1
   149    61    54   am
   150    61    62    1
   151    65    62    1
   152    54    55    2
   153    28    27    1
   154   111   112    1
   155   181   175   am
   156   181   182    1
   157    23    26    1
   158    23    24    1
   159   175   176    2
   160    27    26    1
   161    62    63    1
   162   138   140    1
   163   138   139    1
   164    31    30    1
   165    31    32    1
   166   185   182    1
   167    24    25    2
   168   182   183    1
   169   112   114    1
   170   112   113    1
   171    32    33    2
   172   139   141    1
   173    63    64    2
   174   191   190    1
   175   186   183   am
   176   186   187    1
   177   190   187    1
   178   183   184    2
   179   187   188    1
   180   188   189    2
