@<TRIPOS>MOLECULE
tmp/1rm0A00.pdb
 127 115 0 0 0
SMALL
GASTEIGER

@<TRIPOS>ATOM
      1  N        -13.4880   40.9930   15.6880 N.3   313  LEU313     -0.1245
      2  CA       -13.7450   39.5690   15.8600 C.3   313  LEU313      0.1561
      3  C        -12.5040   38.7700   15.4700 C.2   313  LEU313      0.2260
      4  O        -11.9200   39.0050   14.4150 O.2   313  LEU313     -0.2867
      5  CB       -14.9010   39.1050   14.9660 C.3   313  LEU313      0.0270
      6  CG       -16.2950   39.6950   15.1340 C.3   313  LEU313      0.0019
      7  CD1      -17.2200   39.0750   14.0980 C.3   313  LEU313      0.0001
      8  CD2      -16.8180   39.4150   16.5450 C.3   313  LEU313      0.0001
      9  N        -11.7280   35.5840   14.1830 N.3   315  SER315     -0.1202
     10  CA       -12.4030   34.4170   13.6270 C.3   315  SER315      0.2020
     11  C        -11.6360   33.3890   12.8020 C.2   315  SER315      0.2619
     12  O        -11.8520   32.1820   12.9640 O.2   315  SER315     -0.2717
     13  CB       -13.6270   34.8800   12.8240 C.3   315  SER315      0.2103
     14  OG       -13.2800   35.8510   11.8520 O.3   315  SER315     -0.2182
     15  N        -10.7530   33.8420   11.9210 N.am  316  GLY316     -0.1942
     16  CA       -10.0410   32.8920   11.0870 C.3   316  GLY316      0.2014
     17  C         -8.5360   32.8900   11.1760 C.2   316  GLY316      0.2639
     18  O         -7.9620   32.3000   12.0920 O.2   316  GLY316     -0.2714
     19  N         -7.9030   33.5380   10.2030 N.am  317  GLN317     -0.1963
     20  CA        -6.4500   33.6300   10.1310 C.3   317  GLN317      0.1733
     21  C         -5.7950   34.0330   11.4660 C.2   317  GLN317      0.2617
     22  O         -4.7810   33.4600   11.8630 O.2   317  GLN317     -0.2715
     23  CB        -6.0450   34.6310    9.0340 C.3   317  GLN317      0.0408
     24  CG        -4.5400   34.6840    8.7530 C.3   317  GLN317      0.0908
     25  CD        -4.1460   35.8210    7.8150 C.2   317  GLN317      0.2608
     26  OE1       -4.2700   37.0010    8.1600 O.2   317  GLN317     -0.2717
     27  NE2       -3.6700   35.4680    6.6250 N.am  317  GLN317     -0.0878
     28  N         -6.3760   35.0160   12.1510 N.am  318  THR318     -0.1937
     29  CA        -5.8200   35.4890   13.4170 C.3   318  THR318      0.2028
     30  C         -6.0890   34.5170   14.5580 C.2   318  THR318      0.2642
     31  O         -5.2990   34.4220   15.4970 O.2   318  THR318     -0.2714
     32  CB        -6.4040   36.8660   13.8170 C.3   318  THR318      0.1808
     33  OG1       -6.2760   37.7780   12.7220 O.3   318  THR318     -0.2208
     34  CG2       -5.6540   37.4360   15.0200 C.3   318  THR318      0.0379
     35  N         -7.2120   33.8110   14.4920 N.am  319  LYS319     -0.1977
     36  CA        -7.5450   32.8670   15.5440 C.3   319  LYS319      0.1596
     37  C         -6.4980   31.7580   15.5000 C.2   319  LYS319      0.2287
     38  O         -5.8690   31.4390   16.5070 O.2   319  LYS319     -0.2864
     39  CB        -8.9480   32.3070   15.3170 C.3   319  LYS319      0.0298
     40  CG        -9.5530   31.6360   16.5450 C.3   319  LYS319      0.0038
     41  CD       -11.0190   31.2730   16.3160 C.3   319  LYS319      0.0206
     42  CE       -11.6260   30.6050   17.5380 C.3   319  LYS319      0.1093
     43  NZ       -13.1000   30.4510   17.3850 N.3   319  LYS319     -0.1314
     44  N         -4.2010   38.2190    2.6250 N.3   342  ASN342     -0.1240
     45  CA        -5.6420   37.9690    2.6210 C.3   342  ASN342      0.1653
     46  C         -6.3330   38.6790    1.4670 C.2   342  ASN342      0.2266
     47  O         -5.9840   39.8070    1.1240 O.2   342  ASN342     -0.2867
     48  CB        -6.2980   38.5060    3.9000 C.3   342  ASN342      0.1155
     49  CG        -5.7690   37.8610    5.1560 C.2   342  ASN342      0.2627
     50  OD1       -6.3330   36.8850    5.6550 O.2   342  ASN342     -0.2716
     51  ND2       -4.6770   38.4050    5.6810 N.am  342  ASN342     -0.0877
     52  N        -10.4710   39.0580   -0.2080 N.3   344  LEU344     -0.1245
     53  CA       -11.8900   38.7430   -0.1610 C.3   344  LEU344      0.1561
     54  C        -12.6180   39.6920   -1.1030 C.2   344  LEU344      0.2260
     55  O        -12.0910   40.7490   -1.4650 O.2   344  LEU344     -0.2867
     56  CB       -12.4270   38.8980    1.2650 C.3   344  LEU344      0.0270
     57  CG       -12.4420   40.2790    1.9240 C.3   344  LEU344      0.0019
     58  CD1      -12.9600   40.1000    3.3350 C.3   344  LEU344      0.0001
     59  CD2      -11.0560   40.9150    1.9480 C.3   344  LEU344      0.0001
     60  N        -17.0420   43.9220    3.1490 N.3   348  ASP348     -0.1239
     61  CA       -16.0590   44.0800    4.2100 C.3   348  ASP348      0.1674
     62  C        -14.7160   44.4050    3.5540 C.2   348  ASP348      0.2266
     63  O        -14.0200   45.3350    3.9620 O.2   348  ASP348     -0.2867
     64  CB       -15.9660   42.7820    5.0230 C.3   348  ASP348      0.1410
     65  CG       -15.0100   42.8890    6.2170 C.2   348  ASP348      0.3668
     66  OD1      -14.8060   41.8540    6.8850 O.co2 348  ASP348     -0.2456
     67  OD2      -14.4680   43.9870    6.4970 O.co2 348  ASP348     -0.2456
     68  N        -12.4480   47.9050    3.3450 N.3   352  LEU352     -0.1245
     69  CA       -11.0840   47.7540    3.8350 C.3   352  LEU352      0.1561
     70  C        -10.0650   47.9850    2.7320 C.2   352  LEU352      0.2260
     71  O         -8.8640   47.9760    2.9890 O.2   352  LEU352     -0.2867
     72  CB       -10.8830   46.3620    4.4400 C.3   352  LEU352      0.0270
     73  CG       -11.6230   46.0870    5.7560 C.3   352  LEU352      0.0019
     74  CD1      -11.5360   44.6140    6.0930 C.3   352  LEU352      0.0001
     75  CD2      -11.0290   46.9290    6.8780 C.3   352  LEU352      0.0001
     76  N         -7.6630   47.4770   10.8560 N.3   361  LYS361     -0.1245
     77  CA        -7.6260   46.0300   10.7970 C.3   361  LYS361      0.1561
     78  C         -6.1940   45.5300   10.9030 C.2   361  LYS361      0.2260
     79  O         -5.9090   44.6070   11.6610 O.2   361  LYS361     -0.2867
     80  CB        -8.2390   45.5570    9.4830 C.3   361  LYS361      0.0271
     81  CG        -8.3120   44.0610    9.3570 C.3   361  LYS361      0.0035
     82  CD        -9.7500   43.5940    9.2840 C.3   361  LYS361      0.0206
     83  CE       -10.5230   43.8660   10.5670 C.3   361  LYS361      0.1093
     84  NZ       -11.8580   43.1930   10.5450 N.3   361  LYS361     -0.1314
     85  N         -4.7680   42.7730   13.7000 N.3   365  LYS365     -0.1245
     86  CA        -4.3550   41.4750   13.1710 C.3   365  LYS365      0.1561
     87  C         -2.8700   41.1850   13.3980 C.2   365  LYS365      0.2260
     88  O         -2.4010   40.0680   13.1620 O.2   365  LYS365     -0.2867
     89  CB        -4.6770   41.3870   11.6710 C.3   365  LYS365      0.0271
     90  CG        -6.1630   41.5740   11.3390 C.3   365  LYS365      0.0035
     91  CD        -6.5140   41.1420    9.9160 C.3   365  LYS365      0.0206
     92  CE        -6.2730   39.6520    9.7240 C.3   365  LYS365      0.1093
     93  NZ        -6.8770   39.1010    8.4820 N.3   365  LYS365     -0.1314
     94  N         -4.2180   42.8020    3.0140 N.3   394  ILE394     -0.1245
     95  CA        -5.6250   42.5510    2.7190 C.3   394  ILE394      0.1561
     96  C         -5.9670   43.1660    1.3610 C.2   394  ILE394      0.2260
     97  O         -5.9770   44.3890    1.2100 O.2   394  ILE394     -0.2867
     98  CB        -6.5570   43.1830    3.7800 C.3   394  ILE394      0.0252
     99  CG1       -6.2180   42.6510    5.1730 C.3   394  ILE394      0.0019
    100  CG2       -7.9960   42.8730    3.4390 C.3   394  ILE394      0.0019
    101  CD1       -7.0870   43.2210    6.2680 C.3   394  ILE394      0.0001
    102  N        -13.2070   34.4690    2.0960 N.3   404  LYS404     -0.1245
    103  CA       -11.8710   35.0110    2.2580 C.3   404  LYS404      0.1561
    104  C        -10.8260   33.8990    2.1200 C.2   404  LYS404      0.2260
    105  O        -11.0310   32.7680    2.5710 O.2   404  LYS404     -0.2867
    106  CB       -11.7660   35.6960    3.6310 C.3   404  LYS404      0.0271
    107  CG       -10.4780   36.4720    3.8820 C.3   404  LYS404      0.0035
    108  CD        -9.3500   35.5760    4.3820 C.3   404  LYS404      0.0206
    109  CE        -9.5270   35.1780    5.8500 C.3   404  LYS404      0.1093
    110  NZ        -9.3410   36.3320    6.7860 N.3   404  LYS404     -0.1314
    111  N        -16.2780   33.5420    5.4340 N.3   430  ASP430     -0.1239
    112  CA       -15.9790   34.4590    6.5110 C.3   430  ASP430      0.1674
    113  C        -17.1650   34.7490    7.4220 C.2   430  ASP430      0.2266
    114  O        -17.0080   34.8520    8.6380 O.2   430  ASP430     -0.2867
    115  CB       -15.4530   35.7590    5.9080 C.3   430  ASP430      0.1410
    116  CG       -14.0960   36.1370    6.4390 C.2   430  ASP430      0.3668
    117  OD1      -13.4390   35.2770    7.0590 O.co2 430  ASP430     -0.2456
    118  OD2      -13.6820   37.2960    6.2270 O.co2 430  ASP430     -0.2456
    119  N         -9.7030   40.1340   18.4500 N.3   481  LYS481     -0.1245
    120  CA        -8.3130   40.2520   17.9920 C.3   481  LYS481      0.1561
    121  C         -7.4640   41.0930   18.9170 C.2   481  LYS481      0.2260
    122  O         -6.3740   40.6850   19.3180 O.2   481  LYS481     -0.2867
    123  CB        -8.2310   40.8940   16.6100 C.3   481  LYS481      0.0271
    124  CG        -8.5740   39.9990   15.4550 C.3   481  LYS481      0.0035
    125  CD        -8.0530   40.6130   14.1580 C.3   481  LYS481      0.0206
    126  CE        -8.5480   39.8450   12.9430 C.3   481  LYS481      0.1093
    127  NZ       -10.0280   39.9520   12.7940 N.3   481  LYS481     -0.1314
@<TRIPOS>BOND
     1    55    54    2
     2    54    53    1
     3    52    53    1
     4    53    56    1
     5    47    46    2
     6    97    96    2
     7    56    57    1
     8    96    95    1
     9    46    45    1
    10    57    59    1
    11    57    58    1
    12   102   103    1
    13   104   103    1
    14   104   105    2
    15   103   106    1
    16    45    44    1
    17    45    48    1
    18    95    94    1
    19    95    98    1
    20    70    71    2
    21    70    69    1
    22    60    61    1
    23    68    69    1
    24   100    98    1
    25    62    63    2
    26    62    61    1
    27   106   107    1
    28    98    99    1
    29    69    72    1
    30   107   108    1
    31    48    49    1
    32    61    64    1
    33   108   109    1
    34    72    73    1
    35    64    65    1
    36    49    50    2
    37    49    51   am
    38    99   101    1
    39   111   112    1
    40    73    74    1
    41    73    75    1
    42   109   110    1
    43   115   116    1
    44   115   112    1
    45    65    67   ar
    46    65    66   ar
    47   118   116   ar
    48   116   117   ar
    49   112   113    1
    50    27    25   am
    51   113   114    2
    52    25    26    2
    53    25    24    1
    54    93    92    1
    55    24    23    1
    56    23    20    1
    57    82    81    1
    58    82    83    1
    59    81    80    1
    60    80    77    1
    61    92    91    1
    62    91    90    1
    63    20    19    1
    64    20    21    1
    65    19    17   am
    66    84    83    1
    67    77    76    1
    68    77    78    1
    69    78    79    2
    70    16    17    1
    71    16    15    1
    72    17    18    2
    73    90    89    1
    74    21    22    2
    75    21    28   am
    76    89    86    1
    77    14    13    1
    78    15    11   am
    79    28    29    1
    80    33    32    1
    81   127   126    1
    82    11    12    2
    83    11    10    1
    84    13    10    1
    85   126   125    1
    86    88    87    2
    87    86    87    1
    88    86    85    1
    89    29    32    1
    90    29    30    1
    91    10     9    1
    92    32    34    1
    93     7     6    1
    94   125   124    1
    95     4     3    2
    96    35    30   am
    97    35    36    1
    98    30    31    2
    99     5     6    1
   100     5     2    1
   101     6     8    1
   102    39    36    1
   103    39    40    1
   104   124   123    1
   105     3     2    1
   106    37    36    1
   107    37    38    2
   108     1     2    1
   109    41    40    1
   110    41    42    1
   111   123   120    1
   112    43    42    1
   113   120   119    1
   114   120   121    1
   115   121   122    2
