@<TRIPOS>MOLECULE
tmp/1rm6A01.pdb
 125 122 0 0 0
SMALL
GASTEIGER

@<TRIPOS>ATOM
      1  N          7.9910   49.1900  169.5290 N.3   442  THR442     -0.1204
      2  CA         6.9550   48.1680  169.3330 C.3   442  THR442      0.1979
      3  C          6.9270   47.8200  167.8430 C.2   442  THR442      0.2459
      4  O          6.7580   48.6950  167.0040 O.2   442  THR442     -0.2732
      5  CB         5.5570   48.7110  169.7060 C.3   442  THR442      0.1783
      6  OG1        5.5790   49.1880  171.0780 O.3   442  THR442     -0.2211
      7  CG2        4.5180   47.6080  169.5630 C.3   442  THR442      0.0376
      8  N          7.0720   46.5290  167.5030 N.am  443  PRO443     -0.2728
      9  CA         7.0550   46.1100  166.0910 C.3   443  PRO443      0.1401
     10  C          5.6290   46.2630  165.5320 C.2   443  PRO443      0.2269
     11  O          4.6650   46.2800  166.3050 O.2   443  PRO443     -0.2865
     12  CB         7.4490   44.6300  166.1680 C.3   443  PRO443      0.0296
     13  CG         8.1670   44.5000  167.4820 C.3   443  PRO443      0.0237
     14  CD         7.3360   45.3880  168.3900 C.3   443  PRO443      0.0939
     15  N          4.0860   44.0460  163.6720 N.3   445  HIS445     -0.1226
     16  CA         3.4150   42.7600  163.7800 C.3   445  HIS445      0.1752
     17  C          3.7510   42.1560  165.1250 C.2   445  HIS445      0.2596
     18  O          4.8960   41.8940  165.4360 O.2   445  HIS445     -0.2718
     19  CB         3.8540   41.8490  162.6350 C.3   445  HIS445      0.0759
     20  CG         3.6400   42.4620  161.2810 C.ar  445  HIS445      0.0818
     21  ND1        4.5860   43.2570  160.6600 N.ar  445  HIS445     -0.2268
     22  CD2        2.5580   42.4630  160.4670 C.ar  445  HIS445      0.1154
     23  CE1        4.0910   43.7280  159.5280 C.ar  445  HIS445      0.1986
     24  NE2        2.8630   43.2590  159.3850 N.ar  445  HIS445     -0.2212
     25  N          2.7100   41.9110  165.9140 N.am  446  TRP446     -0.1962
     26  CA         2.9020   41.4140  167.2760 C.3   446  TRP446      0.1771
     27  C          2.9780   39.9060  167.3230 C.2   446  TRP446      0.2620
     28  O          2.0300   39.2200  167.7160 O.2   446  TRP446     -0.2715
     29  CB         1.7670   41.9470  168.1510 C.3   446  TRP446      0.0590
     30  CG         1.6720   43.4380  168.1100 C.ar  446  TRP446      0.0006
     31  CD1        2.5690   44.3270  167.5390 C.ar  446  TRP446      0.0946
     32  CD2        0.6150   44.2400  168.6530 C.ar  446  TRP446      0.0152
     33  NE1        2.1200   45.6180  167.6910 N.ar  446  TRP446     -0.2442
     34  CE2        0.9280   45.5980  168.3710 C.ar  446  TRP446      0.0810
     35  CE3       -0.5720   43.9440  169.3520 C.ar  446  TRP446      0.0012
     36  CZ2        0.0970   46.6620  168.7650 C.ar  446  TRP446      0.0191
     37  CZ3       -1.4020   45.0140  169.7400 C.ar  446  TRP446      0.0001
     38  CH2       -1.0580   46.3470  169.4420 C.ar  446  TRP446      0.0015
     39  N          4.1550   39.4150  166.9540 N.am  447  THR447     -0.1937
     40  CA         4.4500   37.9940  166.8540 C.3   447  THR447      0.2028
     41  C          5.1450   37.4440  168.0880 C.2   447  THR447      0.2643
     42  O          5.4390   36.2420  168.1690 O.2   447  THR447     -0.2714
     43  CB         5.3840   37.7710  165.6470 C.3   447  THR447      0.1808
     44  OG1        6.5610   38.5770  165.8150 O.3   447  THR447     -0.2208
     45  CG2        4.6950   38.1920  164.3600 C.3   447  THR447      0.0379
     46  N          5.4430   38.3280  169.0420 N.am  448  GLY448     -0.1939
     47  CA         6.1410   37.8730  170.2320 C.3   448  GLY448      0.2014
     48  C          7.6020   37.4960  169.9990 C.2   448  GLY448      0.2638
     49  O          8.2330   36.8370  170.8200 O.2   448  GLY448     -0.2714
     50  N          8.1500   37.9190  168.8710 N.am  449  GLU449     -0.1977
     51  CA         9.5430   37.5910  168.5700 C.3   449  GLU449      0.1602
     52  C         10.5000   38.6310  169.1280 C.2   449  GLU449      0.2287
     53  O         10.0870   39.7210  169.5330 O.2   449  GLU449     -0.2864
     54  CB         9.7610   37.5680  167.0520 C.3   449  GLU449      0.0415
     55  CG         9.0510   36.4460  166.3180 C.3   449  GLU449      0.1163
     56  CD         9.0870   36.6580  164.7950 C.2   449  GLU449      0.3649
     57  OE1        9.8020   35.8810  164.1060 O.co2 449  GLU449     -0.2457
     58  OE2        8.3980   37.6120  164.2950 O.co2 449  GLU449     -0.2457
     59  N         13.1440   41.5910  169.0930 N.3   451  HIS451     -0.1241
     60  CA        13.0930   42.7490  168.1870 C.3   451  HIS451      0.1621
     61  C         14.2470   42.7770  167.1840 C.2   451  HIS451      0.2264
     62  O         14.1790   43.5290  166.2050 O.2   451  HIS451     -0.2867
     63  CB        13.0320   44.0340  169.0070 C.3   451  HIS451      0.0745
     64  CG        11.7670   44.1240  169.8080 C.ar  451  HIS451      0.0817
     65  ND1       11.5720   45.0340  170.8280 N.ar  451  HIS451     -0.2268
     66  CD2       10.6260   43.3950  169.7260 C.ar  451  HIS451      0.1154
     67  CE1       10.3620   44.8650  171.3350 C.ar  451  HIS451      0.1986
     68  NE2        9.7640   43.8790  170.6870 N.ar  451  HIS451     -0.2212
     69  N          9.5340   46.4910  178.2420 N.3   594  THR594     -0.1218
     70  CA         8.1830   47.0170  178.2220 C.3   594  THR594      0.1862
     71  C          8.0350   48.4740  178.6270 C.2   594  THR594      0.2287
     72  O          7.2190   49.1910  178.0470 O.2   594  THR594     -0.2866
     73  CB         7.2680   46.1550  179.1050 C.3   594  THR594      0.1770
     74  OG1        7.1470   44.8560  178.5110 O.3   594  THR594     -0.2211
     75  CG2        5.8770   46.7970  179.2360 C.3   594  THR594      0.0375
     76  N          8.0160   50.9820  175.8300 N.3   597  GLN597     -0.1245
     77  CA         7.0010   50.8500  174.7970 C.3   597  GLN597      0.1566
     78  C          5.7610   51.7090  174.9660 C.2   597  GLN597      0.2260
     79  O          4.6870   51.3420  174.5110 O.2   597  GLN597     -0.2867
     80  CB         6.6000   49.3810  174.6850 C.3   597  GLN597      0.0367
     81  CG         7.7670   48.4900  174.2700 C.3   597  GLN597      0.0905
     82  CD         7.3020   47.0740  174.0230 C.2   597  GLN597      0.2608
     83  OE1        6.6080   46.5000  174.8450 O.2   597  GLN597     -0.2717
     84  NE2        7.6810   46.5060  172.8810 N.am  597  GLN597     -0.0878
     85  N          2.6300   53.7840  176.9250 N.3   599  ASP599     -0.1225
     86  CA         1.6440   53.4030  177.9570 C.3   599  ASP599      0.1805
     87  C          0.9250   52.2020  177.3630 C.2   599  ASP599      0.2597
     88  O          0.2430   52.3370  176.3460 O.2   599  ASP599     -0.2718
     89  CB         0.6410   54.5270  178.1840 C.3   599  ASP599      0.1424
     90  CG        -0.2980   54.2460  179.3520 C.2   599  ASP599      0.3668
     91  OD1       -0.6860   53.0720  179.5550 O.co2 599  ASP599     -0.2456
     92  OD2       -0.6610   55.2150  180.0550 O.co2 599  ASP599     -0.2456
     93  N          1.0610   51.0370  177.9930 N.am  600  LYS600     -0.1979
     94  CA         0.4690   49.8390  177.4180 C.3   600  LYS600      0.1596
     95  C         -1.0220   49.9420  177.1620 C.2   600  LYS600      0.2287
     96  O         -1.5590   49.2090  176.3340 O.2   600  LYS600     -0.2864
     97  CB         0.7890   48.6060  178.2770 C.3   600  LYS600      0.0298
     98  CG         0.1930   48.6210  179.6630 C.3   600  LYS600      0.0038
     99  CD         0.5810   47.3550  180.4280 C.3   600  LYS600      0.0206
    100  CE        -0.0580   47.3150  181.8150 C.3   600  LYS600      0.1093
    101  NZ         0.3990   46.1220  182.6000 N.3   600  LYS600     -0.1314
    102  N         -2.5920   52.8360  176.1010 N.3   602  ILE602     -0.1231
    103  CA        -2.8860   53.8570  175.0840 C.3   602  ILE602      0.1692
    104  C         -2.1470   53.3530  173.8340 C.2   602  ILE602      0.2591
    105  O         -0.9300   53.5150  173.7090 O.2   602  ILE602     -0.2718
    106  CB        -2.3270   55.2480  175.4810 C.3   602  ILE602      0.0266
    107  CG1       -2.8420   55.6460  176.8700 C.3   602  ILE602      0.0019
    108  CG2       -2.7620   56.2930  174.4710 C.3   602  ILE602      0.0020
    109  CD1       -2.2510   56.9280  177.3880 C.3   602  ILE602      0.0001
    110  N         -2.8790   52.6980  172.9330 N.am  603  ARG603     -0.1980
    111  CA        -2.2700   52.1130  171.7330 C.3   603  ARG603      0.1597
    112  C         -1.4430   53.0920  170.8880 C.2   603  ARG603      0.2287
    113  O         -0.3240   52.7630  170.4460 O.2   603  ARG603     -0.2864
    114  CB        -3.3650   51.4270  170.8980 C.3   603  ARG603      0.0334
    115  CG        -3.8360   50.1150  171.5510 C.3   603  ARG603      0.0492
    116  CD        -5.1810   49.6140  171.0060 C.3   603  ARG603      0.2205
    117  NE        -5.5390   48.3380  171.6310 N.pl3 603  ARG603     -0.0865
    118  CZ        -6.0810   48.2090  172.8370 C.cat 603  ARG603      0.5346
    119  NH1       -6.3570   49.2850  173.5700 N.pl3 603  ARG603      0.1354
    120  NH2       -6.3150   46.9940  173.3260 N.pl3 603  ARG603      0.1354
    121  N          2.4620   54.0380  171.4970 N.3   606  ALA606     -0.1245
    122  CA         3.6150   53.2640  171.0210 C.3   606  ALA606      0.1562
    123  C          4.3500   54.0700  169.9390 C.2   606  ALA606      0.2260
    124  O          5.5520   53.8980  169.7580 O.2   606  ALA606     -0.2867
    125  CB         3.1500   51.9460  170.4320 C.3   606  ALA606      0.0290
@<TRIPOS>BOND
     1    24    23   ar
     2    24    22   ar
     3    23    21   ar
     4    22    20   ar
     5    21    20   ar
     6    20    19    1
     7    19    16    1
     8    15    16    1
     9    16    17    1
    10    57    56   ar
    11    58    56   ar
    12    45    43    1
    13    56    55    1
    14    17    18    2
    15    17    25   am
    16    10     9    1
    17    10    11    2
    18    43    44    1
    19    43    40    1
    20    25    26    1
    21     9    12    1
    22     9     8    1
    23    12    13    1
    24    62    61    2
    25    55    54    1
    26    40    39    1
    27    40    41    1
    28    39    27   am
    29     4     3    2
    30    54    51    1
    31    61    60    1
    32    26    27    1
    33    26    29    1
    34    27    28    2
    35    13    14    1
    36     8     3   am
    37     8    14    1
    38    31    33   ar
    39    31    30   ar
    40    33    34   ar
    41     3     2    1
    42    41    42    2
    43    41    46   am
    44    30    29    1
    45    30    32   ar
    46    60    63    1
    47    60    59    1
    48    34    32   ar
    49    34    36   ar
    50    51    50    1
    51    51    52    1
    52    32    35   ar
    53    36    38   ar
    54    50    48   am
    55    63    64    1
    56    46    47    1
    57    52    53    2
    58     2     1    1
    59     2     5    1
    60    35    37   ar
    61    38    37   ar
    62     7     5    1
    63     5     6    1
    64    66    64   ar
    65    66    68   ar
    66   124   123    2
    67    64    65   ar
    68   123   122    1
    69    48    47    1
    70    48    49    2
    71   125   122    1
    72   113   112    2
    73    68    67   ar
    74    65    67   ar
    75   112   111    1
    76   114   115    1
    77   114   111    1
    78   116   115    1
    79   116   117    1
    80   122   121    1
    81   117   118    2
    82   111   110    1
    83   118   120    1
    84   118   119    1
    85    84    82   am
    86   110   104   am
    87   105   104    2
    88   104   103    1
    89    82    81    1
    90    82    83    2
    91    81    80    1
    92   108   106    1
    93    79    78    2
    94    80    77    1
    95    77    78    1
    96    77    76    1
    97   103   106    1
    98   103   102    1
    99   106   107    1
   100    96    95    2
   101    88    87    2
   102   107   109    1
   103    85    86    1
   104    95    94    1
   105    87    86    1
   106    87    93   am
   107    94    93    1
   108    94    97    1
   109    86    89    1
   110    72    71    2
   111    89    90    1
   112    70    69    1
   113    70    71    1
   114    70    73    1
   115    97    98    1
   116    74    73    1
   117    73    75    1
   118    90    91   ar
   119    90    92   ar
   120    98    99    1
   121    99   100    1
   122   100   101    1
