@<TRIPOS>MOLECULE
tmp/1rmgA05.pdb
 78 71 0 0 0
SMALL
GASTEIGER

@<TRIPOS>ATOM
      1  N         43.4710   73.5320  106.3910 N.3     1  GLN1       -0.1245
      2  CA        43.3870   73.9710  104.9780 C.3     1  GLN1        0.1566
      3  C         42.4060   73.0330  104.2890 C.2     1  GLN1        0.2260
      4  O         42.3430   71.8520  104.6280 O.2     1  GLN1       -0.2867
      5  CB        44.7730   73.9430  104.3220 C.3     1  GLN1        0.0367
      6  CG        45.5170   72.6260  104.4180 C.3     1  GLN1        0.0905
      7  CD        46.1590   72.3680  105.7840 C.2     1  GLN1        0.2608
      8  OE1       45.5500   72.5920  106.8330 O.2     1  GLN1       -0.2717
      9  NE2       47.3900   71.8480  105.7680 N.am    1  GLN1       -0.0878
     10  N         45.1080   69.3330  110.4010 N.3   235  ASP235     -0.1239
     11  CA        45.0540   70.2460  109.2600 C.3   235  ASP235      0.1674
     12  C         44.0530   71.3860  109.4630 C.2   235  ASP235      0.2266
     13  O         43.1280   71.5830  108.6550 O.2   235  ASP235     -0.2867
     14  CB        44.7370   69.4760  107.9740 C.3   235  ASP235      0.1410
     15  CG        45.8240   68.4670  107.6030 C.2   235  ASP235      0.3668
     16  OD1       46.9790   68.6060  108.0750 O.co2 235  ASP235     -0.2456
     17  OD2       45.5200   67.5330  106.8260 O.co2 235  ASP235     -0.2456
     18  N         43.6900   75.5470  109.9800 N.3   237  VAL237     -0.1245
     19  CA        44.3540   76.8330  109.7720 C.3   237  VAL237      0.1561
     20  C         43.4430   77.9840  110.2330 C.2   237  VAL237      0.2260
     21  O         42.2580   77.9940  109.9030 O.2   237  VAL237     -0.2867
     22  CB        44.6770   77.0970  108.2610 C.3   237  VAL237      0.0252
     23  CG1       45.3040   78.4970  108.0680 C.3   237  VAL237      0.0019
     24  CG2       45.6170   76.0450  107.7310 C.3   237  VAL237      0.0019
     25  N         49.3140   69.4430  112.8440 N.3   263  ASN263     -0.1225
     26  CA        49.3290   70.2830  111.6660 C.3   263  ASN263      0.1785
     27  C         48.3450   71.4420  111.7890 C.2   263  ASN263      0.2597
     28  O         47.3900   71.5360  111.0100 O.2   263  ASN263     -0.2718
     29  CB        49.0190   69.4780  110.4120 C.3   263  ASN263      0.1169
     30  CG        49.8810   68.2280  110.2770 C.2   263  ASN263      0.2627
     31  OD1       50.9960   68.1570  110.7880 O.2   263  ASN263     -0.2716
     32  ND2       49.3520   67.2260  109.5940 N.am  263  ASN263     -0.0877
     33  N         48.6110   72.3320  112.7430 N.am  264  VAL264     -0.1966
     34  CA        47.7720   73.5050  112.9980 C.3   264  VAL264      0.1727
     35  C         48.6070   74.7760  112.7710 C.2   264  VAL264      0.2616
     36  O         49.7340   74.8840  113.2550 O.2   264  VAL264     -0.2715
     37  CB        47.2450   73.4900  114.4530 C.3   264  VAL264      0.0290
     38  CG1       46.4610   74.7680  114.7610 C.3   264  VAL264      0.0023
     39  CG2       46.3660   72.2450  114.6830 C.3   264  VAL264      0.0023
     40  N         48.0620   75.7250  112.0230 N.am  265  LEU265     -0.1977
     41  CA        48.7600   76.9700  111.7510 C.3   265  LEU265      0.1596
     42  C         47.8380   78.0670  112.2480 C.2   265  LEU265      0.2287
     43  O         46.6780   78.0570  111.8920 O.2   265  LEU265     -0.2864
     44  CB        48.9200   77.1390  110.2450 C.3   265  LEU265      0.0297
     45  CG        50.0400   78.0020  109.6640 C.3   265  LEU265      0.0022
     46  CD1       49.5020   78.6390  108.4190 C.3   265  LEU265      0.0001
     47  CD2       50.5630   79.0500  110.5980 C.3   265  LEU265      0.0001
     48  N         51.1100   68.1050  118.2180 N.3   298  ASN298     -0.1225
     49  CA        52.3080   68.0320  117.4230 C.3   298  ASN298      0.1785
     50  C         52.2480   68.9160  116.2040 C.2   298  ASN298      0.2597
     51  O         51.2060   69.0120  115.5470 O.2   298  ASN298     -0.2718
     52  CB        52.5750   66.5920  116.9680 C.3   298  ASN298      0.1169
     53  CG        53.8480   66.4800  116.1560 C.2   298  ASN298      0.2627
     54  OD1       54.9400   66.6470  116.6900 O.2   298  ASN298     -0.2716
     55  ND2       53.7160   66.2780  114.8480 N.am  298  ASN298     -0.0877
     56  N         53.3800   69.5540  115.9030 N.am  299  ASN299     -0.1974
     57  CA        53.5050   70.4010  114.7260 C.3   299  ASN299      0.1688
     58  C         52.4310   71.4910  114.6650 C.2   299  ASN299      0.2292
     59  O         51.4960   71.4590  113.8480 O.2   299  ASN299     -0.2864
     60  CB        53.5030   69.5370  113.4590 C.3   299  ASN299      0.1181
     61  CG        53.6910   70.3500  112.2000 C.2   299  ASN299      0.2629
     62  OD1       54.2990   71.4170  112.2210 O.2   299  ASN299     -0.2716
     63  ND2       53.2440   69.7990  111.0800 N.am  299  ASN299     -0.0877
     64  N         52.1870   75.6280  114.5420 N.3   301  THR301     -0.1218
     65  CA        52.8930   76.8630  114.2200 C.3   301  THR301      0.1862
     66  C         52.0600   78.1090  114.5270 C.2   301  THR301      0.2287
     67  O         50.9490   78.2650  114.0200 O.2   301  THR301     -0.2866
     68  CB        53.2660   76.8780  112.7320 C.3   301  THR301      0.1770
     69  OG1       54.0990   75.7480  112.4500 O.3   301  THR301     -0.2211
     70  CG2       54.0110   78.1540  112.3610 C.3   301  THR301      0.0375
     71  N         57.3280   69.7810  118.4560 N.3   330  ASP330     -0.1239
     72  CA        57.3170   70.4670  117.1760 C.3   330  ASP330      0.1674
     73  C         56.5070   71.7590  117.0950 C.2   330  ASP330      0.2266
     74  O         55.8840   72.0440  116.0630 O.2   330  ASP330     -0.2867
     75  CB        56.8030   69.5100  116.1230 C.3   330  ASP330      0.1410
     76  CG        57.6780   69.4580  114.9380 C.2   330  ASP330      0.3668
     77  OD1       58.7270   68.7770  115.0500 O.co2 330  ASP330     -0.2456
     78  OD2       57.3240   70.0870  113.9110 O.co2 330  ASP330     -0.2456
@<TRIPOS>BOND
     1     3     4    2
     2     3     2    1
     3     5     6    1
     4     5     2    1
     5     6     7    1
     6     2     1    1
     7     9     7   am
     8     7     8    2
     9    17    15   ar
    10    15    14    1
    11    15    16   ar
    12    24    22    1
    13    14    11    1
    14    23    22    1
    15    22    19    1
    16    46    45    1
    17    13    12    2
    18    11    12    1
    19    11    10    1
    20    32    30   am
    21    45    44    1
    22    45    47    1
    23    19    18    1
    24    19    20    1
    25    21    20    2
    26    44    41    1
    27    30    29    1
    28    30    31    2
    29    29    26    1
    30    28    27    2
    31    63    61   am
    32    26    27    1
    33    26    25    1
    34    41    40    1
    35    41    42    1
    36    27    33   am
    37    43    42    2
    38    40    35   am
    39    61    62    2
    40    61    60    1
    41    70    68    1
    42    69    68    1
    43    68    65    1
    44    33    34    1
    45    35    34    1
    46    35    36    2
    47    34    37    1
    48    60    57    1
    49    59    58    2
    50    78    76   ar
    51    67    66    2
    52    65    66    1
    53    65    64    1
    54    37    39    1
    55    37    38    1
    56    58    57    1
    57    57    56    1
    58    55    53   am
    59    76    77   ar
    60    76    75    1
    61    51    50    2
    62    56    50   am
    63    74    73    2
    64    75    72    1
    65    53    54    2
    66    53    52    1
    67    50    49    1
    68    52    49    1
    69    73    72    1
    70    72    71    1
    71    49    48    1
