@<TRIPOS>MOLECULE
tmp/1rmlA00.pdb
 121 120 0 0 0
SMALL
GASTEIGER

@<TRIPOS>ATOM
      1  N          9.7030   -9.3620    1.9260 N.3     9  ASN9       -0.1240
      2  CA        11.0200   -9.1770    2.5110 C.3     9  ASN9        0.1653
      3  C         10.9550   -8.0660    3.5610 C.2     9  ASN9        0.2266
      4  O         11.3310   -8.2730    4.7140 O.2     9  ASN9       -0.2867
      5  CB        12.0410   -8.7640    1.4490 C.3     9  ASN9        0.1155
      6  CG        13.4610   -9.1300    1.8830 C.2     9  ASN9        0.2627
      7  OD1       13.9810  -10.1890    1.5690 O.2     9  ASN9       -0.2716
      8  ND2       14.0590   -8.1980    2.6190 N.am    9  ASN9       -0.0877
      9  N          5.5760    0.1560   -1.8940 N.3   101  GLY101     -0.1210
     10  CA         6.3700   -0.5820   -0.9270 C.3   101  GLY101      0.1956
     11  C          7.0020    0.3610    0.0980 C.2   101  GLY101      0.2612
     12  O          6.7560    1.5660    0.0720 O.2   101  GLY101     -0.2717
     13  N          7.8030   -0.2220    0.9780 N.am  102  LEU102     -0.1965
     14  CA         8.4710    0.5520    2.0100 C.3   102  LEU102      0.1728
     15  C          9.8760   -0.0120    2.2350 C.2   102  LEU102      0.2616
     16  O         10.0380   -1.2080    2.4730 O.2   102  LEU102     -0.2715
     17  CB         7.6180    0.6020    3.2790 C.3   102  LEU102      0.0311
     18  CG         6.1150    0.7960    3.0700 C.3   102  LEU102      0.0022
     19  CD1        5.3790   -0.5440    3.1020 C.3   102  LEU102      0.0001
     20  CD2        5.5440    1.7880    4.0850 C.3   102  LEU102      0.0001
     21  N         10.8550    0.8760    2.1510 N.am  103  LYS103     -0.1963
     22  CA        12.2410    0.4820    2.3430 C.3   103  LYS103      0.1728
     23  C         12.3150   -0.5940    3.4280 C.2   103  LYS103      0.2616
     24  O         11.7800   -0.4160    4.5210 O.2   103  LYS103     -0.2715
     25  CB        13.1110    1.7070    2.6300 C.3   103  LYS103      0.0311
     26  CG        14.5270    1.5150    2.0820 C.3   103  LYS103      0.0038
     27  CD        15.5520    2.2630    2.9360 C.3   103  LYS103      0.0206
     28  CE        16.8590    2.4710    2.1680 C.3   103  LYS103      0.1093
     29  NZ        18.0190    2.3700    3.0810 N.3   103  LYS103     -0.1314
     30  N         12.9830   -1.6870    3.0880 N.am  104  LYS104     -0.1963
     31  CA        13.1340   -2.7910    4.0200 C.3   104  LYS104      0.1728
     32  C         14.0300   -2.3540    5.1810 C.2   104  LYS104      0.2616
     33  O         15.0790   -2.9510    5.4190 O.2   104  LYS104     -0.2715
     34  CB        13.6360   -4.0400    3.2930 C.3   104  LYS104      0.0311
     35  CG        14.9660   -3.7680    2.5880 C.3   104  LYS104      0.0038
     36  CD        16.1430   -4.2780    3.4220 C.3   104  LYS104      0.0206
     37  CE        17.1750   -4.9830    2.5390 C.3   104  LYS104      0.1093
     38  NZ        18.5450   -4.5530    2.8980 N.3   104  LYS104     -0.1314
     39  N         13.5830   -1.3160    5.8730 N.am  105  ASN105     -0.1972
     40  CA        14.3300   -0.7930    7.0030 C.3   105  ASN105      0.1688
     41  C         13.3570   -0.1850    8.0150 C.2   105  ASN105      0.2292
     42  O         13.4850   -0.4100    9.2180 O.2   105  ASN105     -0.2864
     43  CB        15.3000    0.3050    6.5610 C.3   105  ASN105      0.1181
     44  CG        16.6830   -0.2740    6.2600 C.2   105  ASN105      0.2629
     45  OD1       16.8750   -1.0400    5.3300 O.2   105  ASN105     -0.2716
     46  ND2       17.6340    0.1340    7.0960 N.am  105  ASN105     -0.0877
     47  N         11.8980    6.0380   -6.5150 N.3   113  ARG113     -0.1231
     48  CA        12.6080    5.1640   -5.5960 C.3   113  ARG113      0.1694
     49  C         11.6560    4.1130   -5.0210 C.2   113  ARG113      0.2593
     50  O         11.7130    3.8020   -3.8330 O.2   113  ARG113     -0.2718
     51  CB        13.2290    5.9610   -4.4470 C.3   113  ARG113      0.0321
     52  CG        14.7070    6.2500   -4.7170 C.3   113  ARG113      0.0489
     53  CD        15.5950    5.6100   -3.6480 C.3   113  ARG113      0.2205
     54  NE        16.8020    6.4390   -3.4290 N.pl3 113  ARG113     -0.0865
     55  CZ        17.9520    5.9730   -2.9260 C.cat 113  ARG113      0.5346
     56  NH1       18.0600    4.6820   -2.5850 N.pl3 113  ARG113      0.1354
     57  NH2       18.9950    6.7990   -2.7620 N.pl3 113  ARG113      0.1354
     58  N         10.8020    3.5950   -5.8930 N.am  114  THR114     -0.1939
     59  CA         9.8390    2.5850   -5.4870 C.3   114  THR114      0.2028
     60  C          9.5400    1.6360   -6.6500 C.2   114  THR114      0.2642
     61  O          8.3920    1.5130   -7.0750 O.2   114  THR114     -0.2714
     62  CB         8.5980    3.3030   -4.9530 C.3   114  THR114      0.1808
     63  OG1        7.5830    2.3030   -4.9740 O.3   114  THR114     -0.2208
     64  CG2        8.0840    4.3760   -5.9150 C.3   114  THR114      0.0379
     65  N         10.5920    0.9910   -7.1310 N.am  115  HIS115     -0.1959
     66  CA        10.4560    0.0570   -8.2360 C.3   115  HIS115      0.1787
     67  C         10.9300   -1.3300   -7.7970 C.2   115  HIS115      0.2620
     68  O         12.0130   -1.4690   -7.2310 O.2   115  HIS115     -0.2715
     69  CB        11.1930    0.5710   -9.4750 C.3   115  HIS115      0.0785
     70  CG        11.1500    2.0720   -9.6360 C.ar  115  HIS115      0.0821
     71  ND1       11.5780    2.9440   -8.6510 N.ar  115  HIS115     -0.2267
     72  CD2       10.7280    2.8450  -10.6780 C.ar  115  HIS115      0.1154
     73  CE1       11.4150    4.1840   -9.0900 C.ar  115  HIS115      0.1986
     74  NE2       10.8870    4.1200  -10.3460 N.ar  115  HIS115     -0.2212
     75  N         10.0950   -2.3200   -8.0760 N.am  116  TYR116     -0.1960
     76  CA        10.4150   -3.6910   -7.7170 C.3   116  TYR116      0.1771
     77  C         11.8240   -4.0660   -8.1820 C.2   116  TYR116      0.2620
     78  O         12.5410   -3.2330   -8.7350 O.2   116  TYR116     -0.2715
     79  CB         9.3990   -4.5680   -8.4510 C.3   116  TYR116      0.0574
     80  CG         9.7490   -4.8330   -9.9160 C.ar  116  TYR116     -0.0198
     81  CD1        9.7040   -3.8020  -10.8340 C.ar  116  TYR116     -0.0009
     82  CD2       10.1090   -6.1020  -10.3210 C.ar  116  TYR116     -0.0009
     83  CE1       10.0340   -4.0510  -12.2130 C.ar  116  TYR116      0.0417
     84  CE2       10.4390   -6.3510  -11.7010 C.ar  116  TYR116      0.0417
     85  CZ        10.3850   -5.3130  -12.5780 C.ar  116  TYR116      0.1957
     86  OH        10.6970   -5.5490  -13.8810 O.3   116  TYR116     -0.2866
     87  N         12.1780   -5.3200   -7.9420 N.am  117  GLY117     -0.1940
     88  CA        13.4880   -5.8150   -8.3300 C.3   117  GLY117      0.2014
     89  C         13.9550   -6.9270   -7.3890 C.2   117  GLY117      0.2639
     90  O         14.8490   -7.6990   -7.7310 O.2   117  GLY117     -0.2714
     91  N         13.3270   -6.9740   -6.2230 N.am  118  GLN118     -0.1963
     92  CA        13.6670   -7.9790   -5.2310 C.3   118  GLN118      0.1733
     93  C         12.3970   -8.6130   -4.6610 C.2   118  GLN118      0.2616
     94  O         11.9040   -9.6080   -5.1910 O.2   118  GLN118     -0.2715
     95  CB        14.5280   -7.3800   -4.1160 C.3   118  GLN118      0.0408
     96  CG        15.9740   -7.8700   -4.2170 C.3   118  GLN118      0.0908
     97  CD        16.8910   -6.7660   -4.7470 C.2   118  GLN118      0.2608
     98  OE1       16.9600   -5.6710   -4.2130 O.2   118  GLN118     -0.2717
     99  NE2       17.5900   -7.1140   -5.8230 N.am  118  GLN118     -0.0878
    100  N         11.9020   -8.0120   -3.5890 N.am  119  LYS119     -0.1963
    101  CA        10.6990   -8.5060   -2.9420 C.3   119  LYS119      0.1728
    102  C         10.3480   -7.5940   -1.7640 C.2   119  LYS119      0.2616
    103  O         10.3010   -8.0430   -0.6200 O.2   119  LYS119     -0.2715
    104  CB        10.8640   -9.9760   -2.5540 C.3   119  LYS119      0.0311
    105  CG        12.2090  -10.2140   -1.8650 C.3   119  LYS119      0.0038
    106  CD        13.2790  -10.6280   -2.8780 C.3   119  LYS119      0.0206
    107  CE        14.1930  -11.7090   -2.2980 C.3   119  LYS119      0.1093
    108  NZ        13.8340  -13.0380   -2.8430 N.3   119  LYS119     -0.1314
    109  N         10.1100   -6.3310   -2.0850 N.am  120  ALA120     -0.1963
    110  CA         9.7640   -5.3530   -1.0680 C.3   120  ALA120      0.1728
    111  C          8.3900   -4.7580   -1.3840 C.2   120  ALA120      0.2616
    112  O          7.9820   -3.7710   -0.7750 O.2   120  ALA120     -0.2715
    113  CB        10.8580   -4.2860   -0.9930 C.3   120  ALA120      0.0334
    114  N          7.7150   -5.3840   -2.3370 N.am  121  ILE121     -0.1977
    115  CA         6.3960   -4.9290   -2.7420 C.3   121  ILE121      0.1596
    116  C          5.3890   -6.0640   -2.5500 C.2   121  ILE121      0.2287
    117  O          4.1980   -5.8180   -2.3620 O.2   121  ILE121     -0.2864
    118  CB         6.4340   -4.3740   -4.1670 C.3   121  ILE121      0.0276
    119  CG1        7.0880   -5.3720   -5.1260 C.3   121  ILE121      0.0022
    120  CG2        7.1210   -3.0080   -4.2060 C.3   121  ILE121      0.0022
    121  CD1        7.4960   -4.6890   -6.4330 C.3   121  ILE121      0.0001
@<TRIPOS>BOND
     1    86    85    1
     2    85    83   ar
     3    85    84   ar
     4    83    81   ar
     5    84    82   ar
     6    81    80   ar
     7    72    74   ar
     8    72    70   ar
     9    74    73   ar
    10    82    80   ar
    11    80    79    1
    12    70    69    1
    13    70    71   ar
    14    69    66    1
    15    73    71   ar
    16    78    77    2
    17    79    76    1
    18    88    87    1
    19    88    89    1
    20    66    67    1
    21    66    65    1
    22    77    87   am
    23    77    76    1
    24    75    67   am
    25    75    76    1
    26    67    68    2
    27    90    89    2
    28    89    91   am
    29    65    60   am
    30    61    60    2
    31    60    59    1
    32    47    48    1
    33   121   119    1
    34    91    92    1
    35    64    62    1
    36    58    59    1
    37    58    49   am
    38    99    97   am
    39    48    49    1
    40    48    51    1
    41    59    62    1
    42    92    93    1
    43    92    95    1
    44    94    93    2
    45   119   118    1
    46    49    50    2
    47    63    62    1
    48    97    96    1
    49    97    98    2
    50    52    51    1
    51    52    53    1
    52    93   100   am
    53    96    95    1
    54   120   118    1
    55   118   115    1
    56    53    54    1
    57   100   101    1
    58    54    55    2
    59   101   104    1
    60   101   102    1
    61    55    57    1
    62    55    56    1
    63   106   107    1
    64   106   105    1
    65   108   107    1
    66   115   116    1
    67   115   114    1
    68   104   105    1
    69   116   117    2
    70   114   111   am
    71   109   102   am
    72   109   110    1
    73     9    10    1
    74   102   103    2
    75   111   110    1
    76   111   112    2
    77   110   113    1
    78    10    11    1
    79    12    11    2
    80    11    13   am
    81    13    14    1
    82     5     6    1
    83     5     2    1
    84     7     6    2
    85     6     8   am
    86     1     2    1
    87    14    15    1
    88    14    17    1
    89    26    25    1
    90    26    27    1
    91    21    15   am
    92    21    22    1
    93    28    27    1
    94    28    29    1
    95    15    16    2
    96    22    25    1
    97    22    23    1
    98     2     3    1
    99    37    38    1
   100    37    36    1
   101    35    34    1
   102    35    36    1
   103    18    19    1
   104    18    17    1
   105    18    20    1
   106    30    23   am
   107    30    31    1
   108    34    31    1
   109    23    24    2
   110     3     4    2
   111    31    32    1
   112    32    33    2
   113    32    39   am
   114    45    44    2
   115    39    40    1
   116    44    43    1
   117    44    46   am
   118    43    40    1
   119    40    41    1
   120    41    42    2
