@<TRIPOS>MOLECULE
tmp/1rmsA00.pdb
 139 140 0 0 0
SMALL
GASTEIGER

@<TRIPOS>ATOM
      1  N         34.0610   41.7850   21.5200 N.3    37  TYR37      -0.1241
      2  CA        32.6040   42.0010   21.6600 C.3    37  TYR37       0.1605
      3  C         32.0950   42.0370   20.2490 C.2    37  TYR37       0.2264
      4  O         32.8410   42.5630   19.4050 O.2    37  TYR37      -0.2867
      5  CB        32.2290   43.3510   22.3130 C.3    37  TYR37       0.0534
      6  CG        32.5540   43.2960   23.7840 C.ar   37  TYR37      -0.0201
      7  CD1       31.6860   42.7590   24.7240 C.ar   37  TYR37      -0.0009
      8  CD2       33.7850   43.7610   24.2150 C.ar   37  TYR37      -0.0009
      9  CE1       32.0170   42.7400   26.0750 C.ar   37  TYR37       0.0417
     10  CE2       34.1480   43.7230   25.5470 C.ar   37  TYR37       0.0417
     11  CZ        33.2400   43.2090   26.4750 C.ar   37  TYR37       0.1957
     12  OH        33.6640   43.2260   27.7790 O.3    37  TYR37      -0.2866
     13  N         29.8850   38.9710   22.2220 N.3    39  HIS39      -0.1226
     14  CA        30.1330   37.6170   22.6770 C.3    39  HIS39       0.1752
     15  C         28.8310   37.1740   23.3830 C.2    39  HIS39       0.2596
     16  O         28.0150   37.9760   23.8640 O.2    39  HIS39      -0.2718
     17  CB        31.4640   37.3870   23.3790 C.3    39  HIS39       0.0759
     18  CG        31.5810   37.9870   24.7360 C.ar   39  HIS39       0.0818
     19  ND1       30.9210   37.3160   25.7150 N.ar   39  HIS39      -0.2268
     20  CD2       32.1890   39.0320   25.3340 C.ar   39  HIS39       0.1154
     21  CE1       31.1500   38.0000   26.7950 C.ar   39  HIS39       0.1986
     22  NE2       31.9220   39.0520   26.6740 N.ar   39  HIS39      -0.2212
     23  N         28.6990   35.8420   23.3940 N.am   40  GLU40      -0.1965
     24  CA        27.5750   35.1370   23.9370 C.3    40  GLU40       0.1733
     25  C         27.4250   35.5540   25.3840 C.2    40  GLU40       0.2616
     26  O         28.4300   35.6550   26.0640 O.2    40  GLU40      -0.2715
     27  CB        27.6240   33.5990   24.0240 C.3    40  GLU40       0.0429
     28  CG        27.5360   32.7890   22.7610 C.3    40  GLU40       0.1163
     29  CD        27.0380   31.3430   22.8530 C.2    40  GLU40       0.3649
     30  OE1       26.6390   30.7860   23.8920 O.co2  40  GLU40      -0.2457
     31  OE2       27.1190   30.9090   21.6580 O.co2  40  GLU40      -0.2457
     32  N         26.1740   35.7200   25.6960 N.am   41  TYR41      -0.1960
     33  CA        25.8630   36.0960   27.0780 C.3    41  TYR41       0.1771
     34  C         25.1110   34.8800   27.6100 C.2    41  TYR41       0.2620
     35  O         24.0870   34.5260   26.9720 O.2    41  TYR41      -0.2715
     36  CB        25.0530   37.4140   27.0690 C.3    41  TYR41       0.0574
     37  CG        24.5160   37.5980   28.4720 C.ar   41  TYR41      -0.0198
     38  CD1       25.3020   37.9840   29.5640 C.ar   41  TYR41      -0.0009
     39  CD2       23.1640   37.3790   28.6530 C.ar   41  TYR41      -0.0009
     40  CE1       24.7130   38.1520   30.8050 C.ar   41  TYR41       0.0417
     41  CE2       22.5830   37.5460   29.8870 C.ar   41  TYR41       0.0417
     42  CZ        23.3650   37.9000   30.9620 C.ar   41  TYR41       0.1957
     43  OH        22.8960   38.0500   32.2400 O.3    41  TYR41      -0.2866
     44  N         25.5610   34.2690   28.6780 N.am   42  HIS42      -0.1959
     45  CA        24.8510   33.0540   29.1190 C.3    42  HIS42       0.1787
     46  C         23.5490   33.0720   29.8590 C.2    42  HIS42       0.2620
     47  O         22.8280   32.0580   29.8660 O.2    42  HIS42      -0.2715
     48  CB        25.8470   32.3490   30.0640 C.3    42  HIS42       0.0785
     49  CG        25.8140   30.8750   30.2250 C.ar   42  HIS42       0.0821
     50  ND1       26.0640   30.0050   29.2070 N.ar   42  HIS42      -0.2267
     51  CD2       25.6080   30.1940   31.3750 C.ar   42  HIS42       0.1154
     52  CE1       25.9970   28.7830   29.7480 C.ar   42  HIS42       0.1986
     53  NE2       25.7390   28.8750   31.0360 N.ar   42  HIS42      -0.2212
     54  N         23.3150   34.2080   30.4810 N.am   43  ASP43      -0.1957
     55  CA        22.1180   34.4110   31.3000 C.3    43  ASP43       0.1840
     56  C         22.1470   33.4650   32.5080 C.2    43  ASP43       0.2622
     57  O         21.2470   32.7660   32.9440 O.2    43  ASP43      -0.2715
     58  CB        20.8230   34.5440   30.5060 C.3    43  ASP43       0.1450
     59  CG        19.6750   35.1740   31.2630 C.2    43  ASP43       0.3671
     60  OD1       19.9030   35.9050   32.2590 O.co2  43  ASP43      -0.2456
     61  OD2       18.4910   34.9020   30.8540 O.co2  43  ASP43      -0.2456
     62  N         23.3300   33.5090   33.0780 N.am   44  TYR44      -0.1960
     63  CA        23.6810   32.7500   34.2750 C.3    44  TYR44       0.1771
     64  C         22.8020   33.3180   35.3770 C.2    44  TYR44       0.2619
     65  O         22.2830   32.6030   36.2420 O.2    44  TYR44      -0.2715
     66  CB        25.2140   32.8120   34.5060 C.3    44  TYR44       0.0574
     67  CG        25.6290   33.0540   35.9270 C.ar   44  TYR44      -0.0198
     68  CD1       25.4160   32.0820   36.9220 C.ar   44  TYR44      -0.0009
     69  CD2       26.2250   34.2520   36.2870 C.ar   44  TYR44      -0.0009
     70  CE1       25.7640   32.2920   38.2590 C.ar   44  TYR44       0.0417
     71  CE2       26.5980   34.4800   37.6070 C.ar   44  TYR44       0.0417
     72  CZ        26.3600   33.5170   38.5850 C.ar   44  TYR44       0.1957
     73  OH        26.7350   33.7830   39.8800 O.3    44  TYR44      -0.2866
     74  N         22.6040   34.6270   35.3530 N.am   45  GLU45      -0.1977
     75  CA        21.8210   35.4230   36.2630 C.3    45  GLU45       0.1602
     76  C         20.3460   35.0900   36.3160 C.2    45  GLU45       0.2287
     77  O         19.7200   35.4470   37.3430 O.2    45  GLU45      -0.2864
     78  CB        21.9000   36.9400   36.0390 C.3    45  GLU45       0.0415
     79  CG        23.1730   37.6560   36.5230 C.3    45  GLU45       0.1163
     80  CD        24.4110   37.4180   35.7360 C.2    45  GLU45       0.3649
     81  OE1       24.4360   36.9750   34.5940 O.co2  45  GLU45      -0.2457
     82  OE2       25.4610   37.7310   36.3420 O.co2  45  GLU45      -0.2457
     83  N         26.1000   39.9500   24.1190 N.3    57  GLU57      -0.1245
     84  CA        26.2670   41.2210   24.8410 C.3    57  GLU57       0.1567
     85  C         27.2160   42.0740   24.0520 C.2    57  GLU57       0.2260
     86  O         28.0860   41.5470   23.3710 O.2    57  GLU57      -0.2867
     87  CB        26.8910   40.9490   26.1520 C.3    57  GLU57       0.0388
     88  CG        28.0810   40.0400   26.3370 C.3    57  GLU57       0.1160
     89  CD        28.5960   40.1840   27.7600 C.2    57  GLU57       0.3649
     90  OE1       29.2440   41.2400   27.8880 O.co2  57  GLU57      -0.2457
     91  OE2       28.3840   39.3050   28.5770 O.co2  57  GLU57      -0.2457
     92  N         25.9720   46.8710   29.3910 N.3    76  ARG76      -0.1245
     93  CA        25.8230   46.0070   28.2140 C.3    76  ARG76       0.1563
     94  C         24.4290   45.8830   27.6500 C.2    76  ARG76       0.2260
     95  O         23.5310   45.7320   28.4590 O.2    76  ARG76      -0.2867
     96  CB        26.2330   44.5430   28.4840 C.3    76  ARG76       0.0307
     97  CG        27.5950   44.3460   29.0350 C.3    76  ARG76       0.0489
     98  CD        28.6980   44.4830   28.0130 C.3    76  ARG76       0.2205
     99  NE        29.9640   44.3660   28.7040 N.pl3  76  ARG76      -0.0865
    100  CZ        30.6760   45.1650   29.4840 C.cat  76  ARG76       0.5346
    101  NH1       30.2490   46.3910   29.6930 N.pl3  76  ARG76       0.1354
    102  NH2       31.7810   44.7290   30.1030 N.pl3  76  ARG76       0.1354
    103  N         27.0680   45.9660   35.3980 N.3    91  HIS91      -0.1241
    104  CA        27.9610   45.4390   36.4250 C.3    91  HIS91       0.1621
    105  C         27.8470   46.3550   37.6410 C.2    91  HIS91       0.2264
    106  O         28.1380   45.9640   38.7920 O.2    91  HIS91      -0.2867
    107  CB        29.4280   45.3560   35.9830 C.3    91  HIS91       0.0745
    108  CG        29.8680   44.2120   35.1280 C.ar   91  HIS91       0.0817
    109  ND1       29.6360   42.9070   35.4900 N.ar   91  HIS91      -0.2268
    110  CD2       30.5380   44.1300   33.9610 C.ar   91  HIS91       0.1154
    111  CE1       30.1420   42.1070   34.5890 C.ar   91  HIS91       0.1986
    112  NE2       30.6780   42.8010   33.6380 N.ar   91  HIS91      -0.2212
    113  N         31.6580   39.9800   39.6180 N.3    97  ASP97      -0.1225
    114  CA        31.5060   39.9950   38.1470 C.3    97  ASP97       0.1805
    115  C         30.1130   39.6540   37.6140 C.2    97  ASP97       0.2598
    116  O         29.8600   39.3340   36.4440 O.2    97  ASP97      -0.2718
    117  CB        32.6530   39.2640   37.4600 C.3    97  ASP97       0.1424
    118  CG        32.9920   40.0290   36.1800 C.2    97  ASP97       0.3668
    119  OD1       33.2680   41.2560   36.2460 O.co2  97  ASP97      -0.2456
    120  OD2       32.9560   39.3670   35.1350 O.co2  97  ASP97      -0.2456
    121  N         29.1730   39.7580   38.5430 N.am   98  ASP98      -0.1960
    122  CA        27.7540   39.5340   38.2900 C.3    98  ASP98       0.1840
    123  C         27.2610   40.8100   37.5610 C.2    98  ASP98       0.2622
    124  O         27.9000   41.8420   37.3150 O.2    98  ASP98      -0.2715
    125  CB        27.0260   39.3070   39.6130 C.3    98  ASP98       0.1450
    126  CG        26.6160   37.8560   39.8250 C.2    98  ASP98       0.3671
    127  OD1       27.5730   37.0780   40.0330 O.co2  98  ASP98      -0.2456
    128  OD2       25.3990   37.5340   39.7800 O.co2  98  ASP98      -0.2456
    129  N         26.0030   40.7040   37.2150 N.am   99  PHE99      -0.1974
    130  CA        25.2170   41.7160   36.5500 C.3    99  PHE99       0.1639
    131  C         23.8630   41.7850   37.2680 C.2    99  PHE99       0.2290
    132  O         23.3280   40.8550   37.8440 O.2    99  PHE99      -0.2864
    133  CB        24.9220   41.4630   35.1050 C.3    99  PHE99       0.0560
    134  CG        25.9370   41.4450   34.0330 C.ar   99  PHE99      -0.0200
    135  CD1       26.4120   42.6410   33.5160 C.ar   99  PHE99      -0.0042
    136  CD2       26.4180   40.2480   33.5020 C.ar   99  PHE99      -0.0042
    137  CE1       27.3340   42.6560   32.5040 C.ar   99  PHE99      -0.0003
    138  CE2       27.3630   40.2330   32.4700 C.ar   99  PHE99      -0.0003
    139  CZ        27.7980   41.4670   31.9890 C.ar   99  PHE99      -0.0000
@<TRIPOS>BOND
     1     4     3    2
     2     3     2    1
     3     1     2    1
     4    31    29   ar
     5     2     5    1
     6    13    14    1
     7     5     6    1
     8    14    17    1
     9    14    15    1
    10    28    29    1
    11    28    27    1
    12    29    30   ar
    13    86    85    2
    14    17    18    1
    15    15    23   am
    16    15    16    2
    17    23    24    1
    18     6     8   ar
    19     6     7   ar
    20    24    27    1
    21    24    25    1
    22    85    84    1
    23    83    84    1
    24     8    10   ar
    25     7     9   ar
    26    18    20   ar
    27    18    19   ar
    28    84    87    1
    29    20    22   ar
    30    25    32   am
    31    25    26    2
    32    10    11   ar
    33    32    33    1
    34    19    21   ar
    35     9    11   ar
    36    87    88    1
    37    88    89    1
    38    11    12    1
    39    22    21   ar
    40    35    34    2
    41    36    33    1
    42    36    37    1
    43    33    34    1
    44    34    44   am
    45    94    93    1
    46    94    95    2
    47    89    90   ar
    48    89    91   ar
    49    98    99    1
    50    98    97    1
    51    93    96    1
    52    93    92    1
    53    37    39   ar
    54    37    38   ar
    55    96    97    1
    56    39    41   ar
    57    44    45    1
    58    99   100    2
    59    45    46    1
    60    45    48    1
    61    50    52   ar
    62    50    49   ar
    63   100   101    1
    64   100   102    1
    65    38    40   ar
    66    52    53   ar
    67    46    47    2
    68    46    54   am
    69    41    42   ar
    70    48    49    1
    71    49    51   ar
    72    54    55    1
    73    58    59    1
    74    58    55    1
    75    40    42   ar
    76    61    59   ar
    77    42    43    1
    78    53    51   ar
    79    59    60   ar
    80    55    56    1
    81   139   138   ar
    82   139   137   ar
    83   138   136   ar
    84   137   135   ar
    85    56    57    2
    86    56    62   am
    87    62    63    1
    88   136   134   ar
    89   135   134   ar
    90   112   110   ar
    91   112   111   ar
    92   110   108   ar
    93   134   133    1
    94    63    66    1
    95    63    64    1
    96    66    67    1
    97   111   109   ar
    98    81    80   ar
    99   133   130    1
   100   108   109   ar
   101   108   107    1
   102   120   118   ar
   103    74    64   am
   104    74    75    1
   105    64    65    2
   106   103   104    1
   107    80    82   ar
   108    80    79    1
   109    67    69   ar
   110    67    68   ar
   111   107   104    1
   112    78    75    1
   113    78    79    1
   114   118   119   ar
   115   118   117    1
   116    75    76    1
   117    69    71   ar
   118    76    77    2
   119   104   105    1
   120   116   115    2
   121   130   129    1
   122   130   131    1
   123    68    70   ar
   124   129   123   am
   125   131   132    2
   126   124   123    2
   127   117   114    1
   128   123   122    1
   129    71    72   ar
   130   115   114    1
   131   115   121   am
   132   105   106    2
   133   114   113    1
   134    70    72   ar
   135   122   121    1
   136   122   125    1
   137    72    73    1
   138   125   126    1
   139   128   126   ar
   140   126   127   ar
