@<TRIPOS>MOLECULE
tmp/1rmtC00.pdb
 166 159 0 0 0
SMALL
GASTEIGER

@<TRIPOS>ATOM
      1  N         17.9890   -2.0220   53.7960 N.3    41  ASP41      -0.1239
      2  CA        17.7810   -2.9560   52.7080 C.3    41  ASP41       0.1674
      3  C         17.3770   -2.1420   51.4820 C.2    41  ASP41       0.2266
      4  O         16.9540   -0.9930   51.6280 O.2    41  ASP41      -0.2867
      5  CB        16.6640   -3.8980   53.1120 C.3    41  ASP41       0.1410
      6  CG        16.2310   -4.8100   52.0260 C.2    41  ASP41       0.3668
      7  OD1       17.1050   -5.5300   51.4950 O.co2  41  ASP41      -0.2456
      8  OD2       15.0270   -4.8600   51.6690 O.co2  41  ASP41      -0.2456
      9  N         15.4320   -3.6820   48.2540 N.3    43  ASP43      -0.1225
     10  CA        14.2180   -4.1050   47.5690 C.3    43  ASP43       0.1805
     11  C         13.0260   -4.1790   48.5160 C.2    43  ASP43       0.2597
     12  O         13.0640   -4.8740   49.5120 O.2    43  ASP43      -0.2718
     13  CB        14.4590   -5.4500   46.8820 C.3    43  ASP43       0.1424
     14  CG        15.6090   -5.4100   45.9350 C.2    43  ASP43       0.3668
     15  OD1       15.6150   -4.4870   45.0980 O.co2  43  ASP43      -0.2456
     16  OD2       16.5260   -6.2540   45.9770 O.co2  43  ASP43      -0.2456
     17  N         11.9990   -3.4060   48.1670 N.am   44  ASP44      -0.1974
     18  CA        10.7800   -3.1950   48.9440 C.3    44  ASP44       0.1709
     19  C         11.0200   -2.4790   50.2670 C.2    44  ASP44       0.2293
     20  O         10.1130   -2.3830   51.0730 O.2    44  ASP44      -0.2864
     21  CB         9.9790   -4.4780   49.1570 C.3    44  ASP44       0.1436
     22  CG         9.1680   -4.8570   47.9320 C.2    44  ASP44       0.3671
     23  OD1        8.5490   -3.9520   47.2950 O.co2  44  ASP44      -0.2456
     24  OD2        9.1260   -6.0370   47.5190 O.co2  44  ASP44      -0.2456
     25  N         11.2750   -2.4120   43.3800 N.3    49  SER49      -0.1202
     26  CA        12.0990   -2.9580   42.3160 C.3    49  SER49       0.2020
     27  C         11.4750   -4.1570   41.6070 C.2    49  SER49       0.2619
     28  O         12.0900   -4.7300   40.7210 O.2    49  SER49      -0.2717
     29  CB        13.4520   -3.3360   42.8940 C.3    49  SER49       0.2103
     30  OG        13.2710   -4.1700   44.0100 O.3    49  SER49      -0.2182
     31  N         10.2500   -4.5200   41.9660 N.am   50  SER50      -0.1951
     32  CA         9.5680   -5.6040   41.2910 C.3    50  SER50       0.1924
     33  C          9.5040   -5.4480   39.7740 C.2    50  SER50       0.2314
     34  O          9.4500   -6.4640   39.1080 O.2    50  SER50      -0.2863
     35  CB         8.1420   -5.7680   41.8440 C.3    50  SER50       0.2116
     36  OG         8.1590   -6.3990   43.1070 O.3    50  SER50      -0.2180
     37  N         12.5280   -7.3130   38.6830 N.3    53  PHE53      -0.1241
     38  CA        12.4330   -8.7040   39.0920 C.3    53  PHE53       0.1605
     39  C         11.3840   -9.4630   38.2680 C.2    53  PHE53       0.2264
     40  O         11.6070  -10.5940   37.8760 O.2    53  PHE53      -0.2867
     41  CB        12.1780   -8.8350   40.5960 C.3    53  PHE53       0.0534
     42  CG        13.4150   -8.6190   41.4180 C.ar   53  PHE53      -0.0203
     43  CD1       14.2420   -9.6700   41.7340 C.ar   53  PHE53      -0.0042
     44  CD2       13.7650   -7.3520   41.8470 C.ar   53  PHE53      -0.0042
     45  CE1       15.3970   -9.4680   42.4750 C.ar   53  PHE53      -0.0003
     46  CE2       14.9030   -7.1450   42.5820 C.ar   53  PHE53      -0.0003
     47  CZ        15.7200   -8.2070   42.9070 C.ar   53  PHE53      -0.0000
     48  N         12.0220  -20.2010   39.8650 N.3    65  GLU65      -0.1245
     49  CA        12.6470  -19.1120   40.5830 C.3    65  GLU65       0.1567
     50  C         14.1540  -19.1140   40.3470 C.2    65  GLU65       0.2260
     51  O         14.8870  -18.4500   41.0840 O.2    65  GLU65      -0.2867
     52  CB        12.3400  -19.2480   42.0810 C.3    65  GLU65       0.0388
     53  CG        10.8610  -19.4450   42.4040 C.3    65  GLU65       0.1160
     54  CD         9.9640  -18.3630   41.8280 C.2    65  GLU65       0.3649
     55  OE1       10.4430  -17.2250   41.6360 O.co2  65  GLU65      -0.2457
     56  OE2        8.7680  -18.6400   41.5700 O.co2  65  GLU65      -0.2457
     57  N         15.9140  -17.6600   38.2260 N.3    67  TYR67      -0.1227
     58  CA        16.4390  -16.3540   37.8760 C.3    67  TYR67       0.1736
     59  C         17.1570  -15.6950   39.0530 C.2    67  TYR67       0.2595
     60  O         18.0910  -14.9180   38.8580 O.2    67  TYR67      -0.2718
     61  CB        15.3600  -15.4470   37.2940 C.3    67  TYR67       0.0548
     62  CG        14.3830  -14.7830   38.2610 C.ar   67  TYR67      -0.0200
     63  CD1       14.4240  -13.3910   38.4710 C.ar   67  TYR67      -0.0009
     64  CD2       13.3890  -15.5090   38.9090 C.ar   67  TYR67      -0.0009
     65  CE1       13.5260  -12.7690   39.3290 C.ar   67  TYR67       0.0417
     66  CE2       12.4860  -14.8830   39.7740 C.ar   67  TYR67       0.0417
     67  CZ        12.5560  -13.5100   39.9600 C.ar   67  TYR67       0.1957
     68  OH        11.6310  -12.9120   40.8160 O.3    67  TYR67      -0.2866
     69  N         16.7190  -16.0160   40.2640 N.am   68  LEU68      -0.1980
     70  CA        17.2640  -15.3770   41.4590 C.3    68  LEU68       0.1596
     71  C         18.6720  -15.8400   41.7980 C.2    68  LEU68       0.2287
     72  O         19.3580  -15.2050   42.5840 O.2    68  LEU68      -0.2864
     73  CB        16.3230  -15.5930   42.6330 C.3    68  LEU68       0.0297
     74  CG        15.0380  -14.7640   42.5070 C.3    68  LEU68       0.0022
     75  CD1       14.0030  -15.2660   43.4900 C.3    68  LEU68       0.0001
     76  CD2       15.3020  -13.2750   42.7310 C.3    68  LEU68       0.0001
     77  N         21.3540  -10.9940   37.2950 N.3    74  TRP74      -0.1241
     78  CA        21.8620  -10.0050   38.2490 C.3    74  TRP74       0.1605
     79  C         22.6130   -8.8890   37.5320 C.2    74  TRP74       0.2264
     80  O         22.5450   -7.7280   37.9340 O.2    74  TRP74      -0.2867
     81  CB        22.7260  -10.6840   39.3250 C.3    74  TRP74       0.0550
     82  CG        21.9260  -11.4570   40.2980 C.ar   74  TRP74       0.0003
     83  CD1       21.9870  -12.8010   40.5610 C.ar   74  TRP74       0.0946
     84  CD2       20.9050  -10.9350   41.1450 C.ar   74  TRP74       0.0152
     85  NE1       21.0740  -13.1360   41.5300 N.ar   74  TRP74      -0.2442
     86  CE2       20.3880  -12.0080   41.8980 C.ar   74  TRP74       0.0810
     87  CE3       20.3810   -9.6530   41.3530 C.ar   74  TRP74       0.0012
     88  CZ2       19.3680  -11.8400   42.8340 C.ar   74  TRP74       0.0191
     89  CZ3       19.3860   -9.4990   42.2700 C.ar   74  TRP74       0.0001
     90  CH2       18.8890  -10.5850   43.0000 C.ar   74  TRP74       0.0015
     91  N         20.2000   -8.1560   49.6960 N.3   110  GLY110     -0.1210
     92  CA        20.2800   -9.5650   49.3900 C.3   110  GLY110      0.1956
     93  C         20.5690   -9.8680   47.9360 C.2   110  GLY110      0.2611
     94  O         20.7060  -11.0430   47.5920 O.2   110  GLY110     -0.2717
     95  N         20.6420   -8.8640   47.0690 N.am  111  ARG111     -0.1979
     96  CA        21.0510   -9.0770   45.6820 C.3   111  ARG111      0.1597
     97  C         22.4760   -9.6540   45.6080 C.2   111  ARG111      0.2287
     98  O         23.3110   -9.4260   46.4760 O.2   111  ARG111     -0.2864
     99  CB        21.0060   -7.7980   44.8930 C.3   111  ARG111      0.0334
    100  CG        19.6400   -7.1950   44.7360 C.3   111  ARG111      0.0492
    101  CD        19.6990   -6.0910   43.7570 C.3   111  ARG111      0.2205
    102  NE        18.5090   -5.2500   43.7180 N.pl3 111  ARG111     -0.0865
    103  CZ        18.3210   -4.2470   42.8760 C.cat 111  ARG111      0.5346
    104  NH1       19.2470   -3.9650   41.9690 N.pl3 111  ARG111      0.1354
    105  NH2       17.2320   -3.4820   42.9440 N.pl3 111  ARG111      0.1354
    106  N         22.2130  -14.0860   48.9320 N.3   142  ASP142     -0.1239
    107  CA        21.1640  -14.8060   49.6430 C.3   142  ASP142      0.1674
    108  C         21.4380  -16.2890   49.5360 C.2   142  ASP142      0.2266
    109  O         21.4440  -16.8530   48.4380 O.2   142  ASP142     -0.2867
    110  CB        19.7910  -14.4480   49.0630 C.3   142  ASP142      0.1410
    111  CG        18.6970  -15.4120   49.4830 C.2   142  ASP142      0.3668
    112  OD1       18.1640  -16.1110   48.5990 O.co2 142  ASP142     -0.2456
    113  OD2       18.2730  -15.5350   50.6550 O.co2 142  ASP142     -0.2456
    114  N         12.2730   -4.7250   54.9270 N.3   164  ASP164     -0.1225
    115  CA        10.9220   -5.2880   54.8100 C.3   164  ASP164      0.1805
    116  C         10.8210   -6.7590   55.1900 C.2   164  ASP164      0.2598
    117  O          9.7570   -7.2540   55.4500 O.2   164  ASP164     -0.2718
    118  CB        10.3530   -5.0720   53.4100 C.3   164  ASP164      0.1424
    119  CG        11.0960   -5.8470   52.3590 C.2   164  ASP164      0.3668
    120  OD1       12.3280   -5.6690   52.2530 O.co2 164  ASP164     -0.2456
    121  OD2       10.5170   -6.6750   51.6020 O.co2 164  ASP164     -0.2456
    122  N         11.9370   -7.4610   55.1810 N.am  165  SER165     -0.1952
    123  CA        11.8980   -8.9180   55.2980 C.3   165  SER165      0.1924
    124  C         12.3000   -9.4020   56.6780 C.2   165  SER165      0.2314
    125  O         12.9410   -8.6830   57.4320 O.2   165  SER165     -0.2863
    126  CB        12.8170   -9.5620   54.2690 C.3   165  SER165      0.2116
    127  OG        12.3520   -9.3140   52.9600 O.3   165  SER165     -0.2180
    128  N          6.1970   -4.1500   52.9460 N.3   184  ARG184     -0.1245
    129  CA         6.2900   -4.4920   51.5360 C.3   184  ARG184      0.1563
    130  C          4.9670   -4.1730   50.8480 C.2   184  ARG184      0.2260
    131  O          3.8960   -4.5720   51.3070 O.2   184  ARG184     -0.2867
    132  CB         6.5620   -5.9770   51.3880 C.3   184  ARG184      0.0307
    133  CG         6.7430   -6.4120   49.9460 C.3   184  ARG184      0.0489
    134  CD         7.1400   -7.8270   49.7750 C.3   184  ARG184      0.2205
    135  NE         8.3960   -8.1540   50.4610 N.pl3 184  ARG184     -0.0865
    136  CZ         8.7710   -9.3940   50.7710 C.cat 184  ARG184      0.5346
    137  NH1        8.0690  -10.4460   50.3320 N.pl3 184  ARG184      0.1354
    138  NH2        9.8730   -9.6180   51.4790 N.pl3 184  ARG184      0.1354
    139  N          6.0010   -8.2640   43.5240 N.3   189  THR189     -0.1203
    140  CA         5.9400   -9.6330   43.0400 C.3   189  THR189      0.1994
    141  C          6.6770  -10.6210   43.9290 C.2   189  THR189      0.2618
    142  O          6.6990  -11.8150   43.6390 O.2   189  THR189     -0.2717
    143  CB         6.4720   -9.7510   41.6220 C.3   189  THR189      0.1784
    144  OG1        7.8160   -9.2660   41.5720 O.3   189  THR189     -0.2211
    145  CG2        5.6610   -8.8910   40.6640 C.3   189  THR189      0.0376
    146  N          7.2360  -10.1390   45.0420 N.am  190  TYR190     -0.1961
    147  CA         7.8440  -11.0240   46.0350 C.3   190  TYR190      0.1771
    148  C          6.7820  -11.3860   47.0700 C.2   190  TYR190      0.2619
    149  O          6.4940  -10.6180   47.9820 O.2   190  TYR190     -0.2715
    150  CB         9.0690  -10.3450   46.6460 C.3   190  TYR190      0.0574
    151  CG         9.9160  -11.1710   47.5800 C.ar  190  TYR190     -0.0198
    152  CD1        9.5700  -12.4700   47.9710 C.ar  190  TYR190     -0.0009
    153  CD2       11.0440  -10.6140   48.1270 C.ar  190  TYR190     -0.0009
    154  CE1       10.3680  -13.1860   48.8550 C.ar  190  TYR190      0.0417
    155  CE2       11.8540  -11.3280   49.0140 C.ar  190  TYR190      0.0417
    156  CZ        11.5050  -12.6020   49.3750 C.ar  190  TYR190      0.1957
    157  OH        12.3050  -13.3110   50.2620 O.3   190  TYR190     -0.2866
    158  N          6.2050  -12.5620   46.9110 N.am  191  LYS191     -0.1977
    159  CA         5.0870  -12.9890   47.7390 C.3   191  LYS191      0.1596
    160  C          5.4390  -14.3440   48.3760 C.2   191  LYS191      0.2287
    161  O          6.2420  -15.0700   47.8110 O.2   191  LYS191     -0.2864
    162  CB         3.8420  -13.1140   46.8440 C.3   191  LYS191      0.0298
    163  CG         3.2990  -11.8060   46.3300 C.3   191  LYS191      0.0038
    164  CD         2.6760  -10.9960   47.4870 C.3   191  LYS191      0.0206
    165  CE         2.2530   -9.5950   47.0610 C.3   191  LYS191      0.1093
    166  NZ         1.4190   -9.5710   45.8540 N.3   191  LYS191     -0.1314
@<TRIPOS>BOND
     1    61    58    1
     2    61    62    1
     3    77    78    1
     4    79    80    2
     5    79    78    1
     6    40    39    2
     7    58    57    1
     8    58    59    1
     9    78    81    1
    10    62    63   ar
    11    62    64   ar
    12    39    38    1
    13    63    65   ar
    14    37    38    1
    15    60    59    2
    16    64    66   ar
    17    59    69   am
    18    38    41    1
    19    34    33    2
    20    81    82    1
    21    65    67   ar
    22    33    32    1
    23    66    67   ar
    24    48    49    1
    25    67    68    1
    26    69    70    1
    27    82    83   ar
    28    82    84   ar
    29    50    49    1
    30    50    51    2
    31    83    85   ar
    32    49    52    1
    33    41    42    1
    34   145   143    1
    35    28    27    2
    36    84    87   ar
    37    84    86   ar
    38    32    35    1
    39    32    31    1
    40    87    89   ar
    41    42    43   ar
    42    42    44   ar
    43    70    71    1
    44    70    73    1
    45    85    86   ar
    46    56    54   ar
    47   144   143    1
    48    27    31   am
    49    27    26    1
    50   143   140    1
    51    55    54   ar
    52    43    45   ar
    53    71    72    2
    54    54    53    1
    55    35    36    1
    56    44    46   ar
    57    86    88   ar
    58   104   103    1
    59    52    53    1
    60    89    90   ar
    61    26    29    1
    62    26    25    1
    63    45    47   ar
    64    74    73    1
    65    74    76    1
    66    74    75    1
    67    46    47   ar
    68    88    90   ar
    69   103   105    1
    70   103   102    2
    71    29    30    1
    72   140   139    1
    73   140   141    1
    74   142   141    2
    75   102   101    1
    76   101   100    1
    77   141   146   am
    78   100    99    1
    79    99    96    1
    80   146   147    1
    81    15    14   ar
    82    97    96    1
    83    97    98    2
    84    96    95    1
    85   166   165    1
    86    14    16   ar
    87    14    13    1
    88   147   150    1
    89   147   148    1
    90   163   162    1
    91   163   164    1
    92   150   151    1
    93   162   159    1
    94    13    10    1
    95   158   148   am
    96   158   159    1
    97   165   164    1
    98    95    93   am
    99   148   149    2
   100    23    22   ar
   101    24    22   ar
   102    10     9    1
   103    10    11    1
   104   151   152   ar
   105   151   153   ar
   106    94    93    2
   107   159   160    1
   108   161   160    2
   109    22    21    1
   110    93    92    1
   111   152   154   ar
   112   153   155   ar
   113    17    11   am
   114    17    18    1
   115   109   108    2
   116    11    12    2
   117   112   111   ar
   118   154   156   ar
   119   106   107    1
   120    18    21    1
   121    18    19    1
   122   155   156   ar
   123   110   111    1
   124   110   107    1
   125   156   157    1
   126    92    91    1
   127   111   113   ar
   128   108   107    1
   129   134   133    1
   130   134   135    1
   131   133   132    1
   132    19    20    2
   133   137   136    1
   134   135   136    2
   135   136   138    1
   136   130   131    2
   137   130   129    1
   138   132   129    1
   139     3     4    2
   140     3     2    1
   141     7     6   ar
   142   129   128    1
   143   121   119   ar
   144     8     6   ar
   145     6     5    1
   146   120   119   ar
   147   119   118    1
   148     2     5    1
   149     2     1    1
   150   127   126    1
   151   118   115    1
   152   126   123    1
   153   115   114    1
   154   115   116    1
   155   122   116   am
   156   122   123    1
   157   116   117    2
   158   123   124    1
   159   124   125    2
