@<TRIPOS>MOLECULE
tmp/1rmuA00.pdb
 104 101 0 0 0
SMALL
GASTEIGER

@<TRIPOS>ATOM
      1  N         44.3750   -0.0390  132.7980 N.3    87  LYS87      -0.1231
      2  CA        43.0490   -0.3160  132.0580 C.3    87  LYS87       0.1693
      3  C         42.8970    0.9460  131.2180 C.2    87  LYS87       0.2592
      4  O         42.8580    2.0540  131.8120 O.2    87  LYS87      -0.2718
      5  CB        41.9220   -0.5590  132.9210 C.3    87  LYS87       0.0285
      6  CG        40.9020    0.5550  132.9500 C.3    87  LYS87       0.0035
      7  CD        39.4710    0.0290  132.7520 C.3    87  LYS87       0.0206
      8  CE        39.0270   -0.4370  134.2330 C.3    87  LYS87       0.1093
      9  NZ        37.7170    0.4680  134.4550 N.3    87  LYS87      -0.1314
     10  N         42.8870    0.7630  129.8960 N.am   88  ILE88      -0.1966
     11  CA        42.9620    1.9010  128.9680 C.3    88  ILE88       0.1727
     12  C         41.8870    2.8990  129.1910 C.2    88  ILE88       0.2616
     13  O         40.6970    2.4810  129.3180 O.2    88  ILE88      -0.2715
     14  CB        42.9370    1.3640  127.5040 C.3    88  ILE88       0.0290
     15  CG1       44.0810    0.3520  127.3860 C.3    88  ILE88       0.0022
     16  CG2       43.0190    2.5590  126.5330 C.3    88  ILE88       0.0023
     17  CD1       44.0830   -0.5440  126.1450 C.3    88  ILE88       0.0001
     18  N         42.1090    4.1060  129.1800 N.am   89  ASN89      -0.1958
     19  CA        41.4180    5.2990  129.4340 C.3    89  ASN89       0.1819
     20  C         41.7940    6.4960  128.6010 C.2    89  ASN89       0.2621
     21  O         43.0690    6.4810  128.1850 O.2    89  ASN89      -0.2715
     22  CB        42.5740    5.7050  130.6460 C.3    89  ASN89       0.1195
     23  CG        41.6090    6.0970  131.6930 C.2    89  ASN89       0.2630
     24  OD1       41.3320    7.3520  131.6640 O.2    89  ASN89      -0.2716
     25  ND2       41.2120    5.0900  132.4340 N.am   89  ASN89      -0.0877
     26  N         41.0490    7.5070  128.4550 N.am   90  LEU90      -0.1963
     27  CA        41.5950    8.7290  127.7060 C.3    90  LEU90       0.1728
     28  C         41.2700    9.9130  128.6250 C.2    90  LEU90       0.2616
     29  O         41.3490   11.0680  128.1920 O.2    90  LEU90      -0.2715
     30  CB        41.0720    8.7300  126.3460 C.3    90  LEU90       0.0311
     31  CG        41.6650    8.2240  125.1180 C.3    90  LEU90       0.0022
     32  CD1       42.6980    7.1400  125.2310 C.3    90  LEU90       0.0001
     33  CD2       40.5170    7.7430  124.2230 C.3    90  LEU90       0.0001
     34  N         40.9610    9.5830  129.9030 N.am   91  SER91      -0.1950
     35  CA        40.4990   10.6820  130.7690 C.3    91  SER91       0.1924
     36  C         41.3170   10.8520  132.0100 C.2    91  SER91       0.2314
     37  O         40.9260   11.7110  132.8540 O.2    91  SER91      -0.2863
     38  CB        39.0230   10.6620  130.9320 C.3    91  SER91       0.2116
     39  OG        38.6780    9.7650  132.0110 O.3    91  SER91      -0.2180
     40  N         31.4870    9.3850  126.6720 N.3   183  TYR183     -0.1241
     41  CA        32.3590    9.8570  127.7700 C.3   183  TYR183      0.1605
     42  C         31.5030   10.4520  128.8670 C.2   183  TYR183      0.2264
     43  O         32.0010   10.8460  129.9320 O.2   183  TYR183     -0.2867
     44  CB        33.3910   10.8170  127.2600 C.3   183  TYR183      0.0534
     45  CG        34.4970   10.0340  126.6030 C.ar  183  TYR183     -0.0201
     46  CD1       35.7190    9.8730  127.2450 C.ar  183  TYR183     -0.0009
     47  CD2       34.2670    9.4590  125.3490 C.ar  183  TYR183     -0.0009
     48  CE1       36.7350    9.1550  126.6290 C.ar  183  TYR183      0.0417
     49  CE2       35.2910    8.7430  124.7240 C.ar  183  TYR183      0.0417
     50  CZ        36.5280    8.5980  125.3640 C.ar  183  TYR183      0.1957
     51  OH        37.5360    7.9260  124.7530 O.3   183  TYR183     -0.2866
     52  N         30.3120    6.1770  135.6120 N.3   199  ILE199     -0.1231
     53  CA        31.4410    5.3440  135.0030 C.3   199  ILE199      0.1692
     54  C         30.7900    4.0710  134.3910 C.2   199  ILE199      0.2592
     55  O         30.1700    3.2620  135.0910 O.2   199  ILE199     -0.2718
     56  CB        32.2180    4.9080  136.3050 C.3   199  ILE199      0.0266
     57  CG1       33.3000    5.9070  136.7170 C.3   199  ILE199      0.0019
     58  CG2       32.9330    3.5630  136.1520 C.3   199  ILE199      0.0020
     59  CD1       34.0500    5.4870  137.9830 C.3   199  ILE199      0.0001
     60  N         30.9040    3.8360  133.0920 N.am  200  THR200     -0.1953
     61  CA        30.2290    2.6500  132.4870 C.3   200  THR200      0.1897
     62  C         31.1970    1.7990  131.6860 C.2   200  THR200      0.2313
     63  O         32.3320    2.2130  131.4060 O.2   200  THR200     -0.2863
     64  CB        29.0800    3.0970  131.5930 C.3   200  THR200      0.1794
     65  OG1       27.9530    3.4410  132.3860 O.3   200  THR200     -0.2208
     66  CG2       28.6320    2.0160  130.6080 C.3   200  THR200      0.0378
     67  N         32.9240    2.2200  127.4620 N.3   203  ASN203     -0.1225
     68  CA        33.9690    3.1980  127.2820 C.3   203  ASN203      0.1785
     69  C         35.2810    2.5300  127.5990 C.2   203  ASN203      0.2597
     70  O         36.3200    3.1940  127.7200 O.2   203  ASN203     -0.2718
     71  CB        33.7440    4.4210  128.1650 C.3   203  ASN203      0.1169
     72  CG        34.1460    5.7160  127.4530 C.2   203  ASN203      0.2627
     73  OD1       35.2290    5.7870  126.8720 O.2   203  ASN203     -0.2716
     74  ND2       33.3310    6.7540  127.4540 N.am  203  ASN203     -0.0877
     75  N         35.1270    1.2330  127.7160 N.am  204  HIS204     -0.1961
     76  CA        36.2160    0.3090  127.9640 C.3   204  HIS204      0.1787
     77  C         36.9270    0.0610  126.6630 C.2   204  HIS204      0.2620
     78  O         36.3130   -0.3520  125.6730 O.2   204  HIS204     -0.2715
     79  CB        35.6500   -1.0230  128.4710 C.3   204  HIS204      0.0785
     80  CG        36.5000   -1.6830  129.5600 C.ar  204  HIS204      0.0821
     81  ND1       37.6290   -2.4400  129.2590 N.ar  204  HIS204     -0.2267
     82  CD2       36.3810   -1.7010  130.9130 C.ar  204  HIS204      0.1154
     83  CE1       38.1440   -2.8790  130.3940 C.ar  204  HIS204      0.1986
     84  NE2       37.4110   -2.4470  131.3900 N.ar  204  HIS204     -0.2212
     85  N         38.1930    0.3050  126.6480 N.am  205  MET205     -0.1977
     86  CA        38.9420    0.1030  125.4290 C.3   205  MET205      0.1605
     87  C         39.9350   -1.0060  125.6090 C.2   205  MET205      0.2287
     88  O         40.9240   -1.0970  124.8750 O.2   205  MET205     -0.2864
     89  CB        39.6490    1.3950  125.0400 C.3   205  MET205      0.0413
     90  CG        38.6670    2.4810  124.5990 C.3   205  MET205      0.0598
     91  SD        39.3560    4.1160  124.6830 S.3   205  MET205     -0.1393
     92  CE        40.8560    4.1840  123.7300 C.3   205  MET205      0.0692
     93  N         38.7470    9.9920  137.1200 N.3   250  ILE250     -0.1231
     94  CA        38.4940    9.3750  135.8160 C.3   250  ILE250      0.1696
     95  C         36.9960    9.0290  135.8220 C.2   250  ILE250      0.2631
     96  O         36.4550    8.3390  136.7210 O.2   250  ILE250     -0.2714
     97  CB        39.3020    8.0610  135.6040 C.3   250  ILE250      0.0266
     98  CG1       40.6380    8.3730  134.9490 C.3   250  ILE250      0.0019
     99  CG2       38.6220    6.9650  134.8580 C.3   250  ILE250      0.0020
    100  CD1       41.7390    7.3820  135.4010 C.3   250  ILE250      0.0001
    101  N         36.3160    9.5650  134.8440 N.am  251  GLY251     -0.1732
    102  CA        34.9360    9.1560  134.6000 C.2   251  GLY251      0.1340
    103  C         33.8780    9.8290  135.3660 C.2   251  GLY251      0.2521
    104  O         32.6240    9.4580  135.2040 O.2   251  GLY251     -0.2816
@<TRIPOS>BOND
     1    92    91    1
     2    33    31    1
     3    90    91    1
     4    90    89    1
     5    49    47   ar
     6    49    50   ar
     7    51    50    1
     8    88    87    2
     9    89    86    1
    10    31    32    1
    11    31    30    1
    12    47    45   ar
    13    50    48   ar
    14    86    87    1
    15    86    85    1
    16    78    77    2
    17    17    15    1
    18    30    27    1
    19    16    14    1
    20    45    46   ar
    21    45    44    1
    22    48    46   ar
    23    85    77   am
    24    77    76    1
    25    40    41    1
    26    73    72    2
    27    44    41    1
    28    68    67    1
    29    68    69    1
    30    68    71    1
    31    15    14    1
    32    72    74   am
    33    72    71    1
    34    14    11    1
    35    69    75   am
    36    69    70    2
    37    27    26    1
    38    27    28    1
    39    75    76    1
    40    41    42    1
    41    76    79    1
    42    21    20    2
    43    29    28    2
    44    26    20   am
    45    79    80    1
    46    20    19    1
    47    28    34   am
    48    42    43    2
    49    11    12    1
    50    11    10    1
    51    18    12   am
    52    18    19    1
    53    12    13    2
    54    81    80   ar
    55    81    83   ar
    56    19    22    1
    57    80    82   ar
    58    10     3   am
    59    34    35    1
    60    83    84   ar
    61    66    64    1
    62    22    23    1
    63    35    38    1
    64    35    36    1
    65    82    84   ar
    66    38    39    1
    67     3     4    2
    68     3     2    1
    69    63    62    2
    70    64    65    1
    71    64    61    1
    72    24    23    2
    73    62    61    1
    74    23    25   am
    75    36    37    2
    76     2     1    1
    77     2     5    1
    78    61    60    1
    79     7     6    1
    80     7     8    1
    81     5     6    1
    82    60    54   am
    83     8     9    1
    84    54    53    1
    85    54    55    2
    86   102   101    1
    87   102   103    2
    88   101    95   am
    89    99    97    1
    90    98   100    1
    91    98    97    1
    92    53    52    1
    93    53    56    1
    94   104   103    1
    95    97    94    1
    96    94    95    1
    97    94    93    1
    98    95    96    2
    99    58    56    1
   100    56    57    1
   101    57    59    1
