@<TRIPOS>MOLECULE
tmp/1rmvB00.pdb
 133 127 0 0 0
SMALL
GASTEIGER

@<TRIPOS>ATOM
      1  N         46.2140   12.0230   32.9740 N.3    86  SER86      -0.1217
      2  CA        45.2640   10.9150   32.7820 C.3    86  SER86       0.1889
      3  C         44.5830   10.5150   34.0910 C.2    86  SER86       0.2288
      4  O         43.3840   10.1960   34.1170 O.2    86  SER86      -0.2866
      5  CB        45.9670    9.6930   32.1990 C.3    86  SER86       0.2089
      6  OG        46.4300    9.9560   30.8940 O.3    86  SER86      -0.2183
      7  N         43.8050   12.3670   36.5140 N.3    88  ASP88      -0.1225
      8  CA        43.3280   13.6400   37.0260 C.3    88  ASP88       0.1805
      9  C         42.4050   13.3260   38.1780 C.2    88  ASP88       0.2598
     10  O         42.6790   13.6680   39.3280 O.2    88  ASP88      -0.2718
     11  CB        42.5280   14.3470   35.9200 C.3    88  ASP88       0.1424
     12  CG        42.0340   15.7360   36.3180 C.2    88  ASP88       0.3668
     13  OD1       41.5350   15.9170   37.4500 O.co2  88  ASP88      -0.2456
     14  OD2       42.1140   16.6480   35.4660 O.co2  88  ASP88      -0.2456
     15  N         41.3590   12.5810   37.8400 N.am   89  THR89      -0.1939
     16  CA        40.3260   12.1930   38.7770 C.3    89  THR89       0.2028
     17  C         39.3780   11.1830   38.1040 C.2    89  THR89       0.2642
     18  O         39.8320   10.2160   37.4700 O.2    89  THR89      -0.2714
     19  CB        39.5720   13.4900   39.2700 C.3    89  THR89       0.1808
     20  OG1       38.5700   13.1560   40.2380 O.3    89  THR89      -0.2208
     21  CG2       38.9330   14.2500   38.0990 C.3    89  THR89       0.0379
     22  N         38.0790   11.4240   38.2710 N.am   90  ARG90      -0.1977
     23  CA        36.9630   10.6520   37.7240 C.3    90  ARG90       0.1597
     24  C         35.6910   11.1030   38.4640 C.2    90  ARG90       0.2287
     25  O         35.7720   11.8890   39.4180 O.2    90  ARG90      -0.2864
     26  CB        37.1900    9.1280   37.8250 C.3    90  ARG90       0.0334
     27  CG        37.7090    8.5950   39.1510 C.3    90  ARG90       0.0492
     28  CD        37.8550    7.0810   39.0580 C.3    90  ARG90       0.2205
     29  NE        38.6030    6.4990   40.1700 N.pl3  90  ARG90      -0.0865
     30  CZ        39.9250    6.3530   40.1840 C.cat  90  ARG90       0.5346
     31  NH1       40.6490    6.7460   39.1440 N.pl3  90  ARG90       0.1354
     32  NH2       40.5210    5.8070   41.2340 N.pl3  90  ARG90       0.1354
     33  N         30.5830    4.9020   34.8670 N.3   111  THR111     -0.1203
     34  CA        31.0700    3.5280   34.7420 C.3   111  THR111      0.1994
     35  C         32.3560    3.5210   33.8890 C.2   111  THR111      0.2618
     36  O         33.4810    3.3910   34.4120 O.2   111  THR111     -0.2717
     37  CB        30.0190    2.6130   34.0670 C.3   111  THR111      0.1784
     38  OG1       28.8010    2.6260   34.8210 O.3   111  THR111     -0.2211
     39  CG2       30.5340    1.1860   33.9760 C.3   111  THR111      0.0376
     40  N         32.1780    3.6960   32.5770 N.am  112  GLN112     -0.1965
     41  CA        33.2970    3.7300   31.6300 C.3   112  GLN112      0.1733
     42  C         34.1540    4.9720   31.8470 C.2   112  GLN112      0.2616
     43  O         35.1030    5.2100   31.1250 O.2   112  GLN112     -0.2715
     44  CB        32.7950    3.6850   30.1760 C.3   112  GLN112      0.0408
     45  CG        32.1160    2.3790   29.7620 C.3   112  GLN112      0.0908
     46  CD        31.6140    2.3920   28.3210 C.2   112  GLN112      0.2608
     47  OE1       32.1460    1.6880   27.4570 O.2   112  GLN112     -0.2717
     48  NE2       30.5690    3.1760   28.0620 N.am  112  GLN112     -0.0878
     49  N         33.7570    5.8080   32.7980 N.am  113  ARG113     -0.1977
     50  CA        34.5280    6.9940   33.1250 C.3   113  ARG113      0.1597
     51  C         35.7830    6.5200   33.8430 C.2   113  ARG113      0.2287
     52  O         36.9000    6.8840   33.4730 O.2   113  ARG113     -0.2864
     53  CB        33.7310    7.9300   34.0400 C.3   113  ARG113      0.0334
     54  CG        32.6910    8.8060   33.3430 C.3   113  ARG113      0.0492
     55  CD        31.6410    8.0090   32.5850 C.3   113  ARG113      0.2205
     56  NE        32.1090    7.5570   31.2770 N.pl3 113  ARG113     -0.0865
     57  CZ        31.3730    6.8450   30.4280 C.cat 113  ARG113      0.5346
     58  NH1       30.1330    6.4950   30.7480 N.pl3 113  ARG113      0.1354
     59  NH2       31.8660    6.4980   29.2440 N.pl3 113  ARG113      0.1354
     60  N         36.7800    3.3160   34.0230 N.3   115  ASP115     -0.1225
     61  CA        37.4090    2.3590   33.1180 C.3   115  ASP115      0.1805
     62  C         38.3110    3.0620   32.0850 C.2   115  ASP115      0.2598
     63  O         39.5100    2.7550   31.9530 O.2   115  ASP115     -0.2718
     64  CB        36.3230    1.5420   32.3980 C.3   115  ASP115      0.1424
     65  CG        35.3520    0.8510   33.3610 C.2   115  ASP115      0.3668
     66  OD1       35.6170    0.8230   34.5850 O.co2 115  ASP115     -0.2456
     67  OD2       34.3170    0.3280   32.8850 O.co2 115  ASP115     -0.2456
     68  N         37.7490    4.0580   31.4080 N.am  116  ASP116     -0.1960
     69  CA        38.4750    4.7930   30.3850 C.3   116  ASP116      0.1840
     70  C         39.6490    5.6090   30.9480 C.2   116  ASP116      0.2622
     71  O         40.6340    5.8560   30.2460 O.2   116  ASP116     -0.2715
     72  CB        37.5040    5.6480   29.5660 C.3   116  ASP116      0.1450
     73  CG        36.5830    4.8040   28.6570 C.2   116  ASP116      0.3671
     74  OD1       36.1670    3.6940   29.0600 O.co2 116  ASP116     -0.2456
     75  OD2       36.2700    5.2570   27.5350 O.co2 116  ASP116     -0.2456
     76  N         39.5720    6.0040   32.2150 N.am  117  ALA117     -0.1963
     77  CA        40.6890    6.7460   32.8030 C.3   117  ALA117      0.1728
     78  C         41.9140    5.8250   32.8340 C.2   117  ALA117      0.2617
     79  O         43.0220    6.2030   32.3880 O.2   117  ALA117     -0.2715
     80  CB        40.3410    7.2120   34.2170 C.3   117  ALA117      0.0334
     81  N         41.6640    4.5920   33.2890 N.am  118  THR118     -0.1937
     82  CA        42.7170    3.5860   33.3980 C.3   118  THR118      0.2028
     83  C         43.4460    3.4180   32.0770 C.2   118  THR118      0.2642
     84  O         44.6720    3.4140   32.0550 O.2   118  THR118     -0.2714
     85  CB        42.2050    2.1900   33.8660 C.3   118  THR118      0.1808
     86  OG1       41.6870    1.4440   32.7560 O.3   118  THR118     -0.2208
     87  CG2       41.1310    2.3350   34.9360 C.3   118  THR118      0.0379
     88  N         42.6920    3.2980   30.9820 N.am  119  VAL119     -0.1963
     89  CA        43.3510    3.1380   29.6760 C.3   119  VAL119      0.1727
     90  C         44.3350    4.2680   29.3940 C.2   119  VAL119      0.2616
     91  O         45.4420    4.0340   28.8730 O.2   119  VAL119     -0.2715
     92  CB        42.3660    3.0080   28.4730 C.3   119  VAL119      0.0290
     93  CG1       41.5000    1.7930   28.6470 C.3   119  VAL119      0.0023
     94  CG2       41.5500    4.2530   28.2800 C.3   119  VAL119      0.0023
     95  N         43.9200    5.4800   29.7670 N.am  120  ALA120     -0.1977
     96  CA        44.7410    6.6760   29.5780 C.3   120  ALA120      0.1597
     97  C         46.1330    6.5200   30.2070 C.2   120  ALA120      0.2287
     98  O         47.1380    6.3460   29.4940 O.2   120  ALA120     -0.2864
     99  CB        44.0280    7.8920   30.1620 C.3   120  ALA120      0.0319
    100  N         47.6160    4.0590   31.6960 N.3   122  ARG122     -0.1231
    101  CA        48.1830    2.7800   31.2940 C.3   122  ARG122      0.1694
    102  C         49.0780    2.8180   30.0420 C.2   122  ARG122      0.2593
    103  O         50.3180    2.9210   30.1160 O.2   122  ARG122     -0.2718
    104  CB        46.9940    1.8290   31.1030 C.3   122  ARG122      0.0321
    105  CG        47.1920    0.5620   30.2970 C.3   122  ARG122      0.0489
    106  CD        45.8810    0.1770   29.5960 C.3   122  ARG122      0.2205
    107  NE        45.5500    1.1420   28.5470 N.pl3 122  ARG122     -0.0865
    108  CZ        44.5810    1.0010   27.6470 C.cat 122  ARG122      0.5346
    109  NH1       43.8020   -0.0740   27.6400 N.pl3 122  ARG122      0.1354
    110  NH2       44.3870    1.9570   26.7520 N.pl3 122  ARG122      0.1354
    111  N         48.4330    2.8050   28.8880 N.am  123  SER123     -0.1938
    112  CA        49.1750    2.7720   27.6450 C.3   123  SER123      0.2055
    113  C         50.1110    3.9610   27.4280 C.2   123  SER123      0.2642
    114  O         51.1610    3.8100   26.7930 O.2   123  SER123     -0.2714
    115  CB        48.2120    2.5800   26.4920 C.3   123  SER123      0.2130
    116  OG        47.5780    1.3180   26.5760 O.3   123  SER123     -0.2179
    117  N         49.7570    5.1290   27.9690 N.am  124  GLN124     -0.1976
    118  CA        50.6390    6.2850   27.8000 C.3   124  GLN124      0.1601
    119  C         51.8890    6.1090   28.6660 C.2   124  GLN124      0.2287
    120  O         52.9490    6.6560   28.3550 O.2   124  GLN124     -0.2864
    121  CB        49.9190    7.6070   28.1090 C.3   124  GLN124      0.0394
    122  CG        50.5740    8.8500   27.4820 C.3   124  GLN124      0.0908
    123  CD        50.7460    8.7600   25.9530 C.2   124  GLN124      0.2608
    124  OE1       51.8170    8.3990   25.4580 O.2   124  GLN124     -0.2717
    125  NE2       49.7030    9.1220   25.2090 N.am  124  GLN124     -0.0878
    126  N         54.2570    4.1500   25.9440 N.3   127  LEU127     -0.1245
    127  CA        54.7990    4.9460   24.8440 C.3   127  LEU127      0.1561
    128  C         55.8240    5.9120   25.4140 C.2   127  LEU127      0.2260
    129  O         56.8550    6.1940   24.7950 O.2   127  LEU127     -0.2867
    130  CB        53.6860    5.7050   24.1240 C.3   127  LEU127      0.0270
    131  CG        53.2610    5.1120   22.7830 C.3   127  LEU127      0.0019
    132  CD1       51.8550    4.5460   22.8800 C.3   127  LEU127      0.0001
    133  CD2       53.3370    6.1870   21.7100 C.3   127  LEU127      0.0001
@<TRIPOS>BOND
     1   133   131    1
     2   131   132    1
     3   131   130    1
     4   130   127    1
     5   129   128    2
     6   127   128    1
     7   127   126    1
     8   125   123   am
     9   124   123    2
    10   123   122    1
    11   115   116    1
    12   115   112    1
    13   110   108    1
    14   114   113    2
    15   113   112    1
    16   113   117   am
    17    47    46    2
    18   122   121    1
    19    75    73   ar
    20   109   108    1
    21   112   111    1
    22   108   107    2
    23   118   117    1
    24   118   121    1
    25   118   119    1
    26    48    46   am
    27    94    92    1
    28    46    45    1
    29   120   119    2
    30    92    93    1
    31    92    89    1
    32   107   106    1
    33    73    74   ar
    34    73    72    1
    35    91    90    2
    36   111   102   am
    37    59    57    1
    38    90    89    1
    39    90    95   am
    40    98    97    2
    41    72    69    1
    42    96    95    1
    43    96    99    1
    44    96    97    1
    45   106   105    1
    46    89    88    1
    47    45    44    1
    48   102   103    2
    49   102   101    1
    50    44    41    1
    51    71    70    2
    52   105   104    1
    53    69    70    1
    54    69    68    1
    55    57    58    1
    56    57    56    2
    57     6     5    1
    58    70    76   am
    59    88    83   am
    60   104   101    1
    61    43    42    2
    62    56    55    1
    63   101   100    1
    64    68    62   am
    65    41    42    1
    66    41    40    1
    67    42    49   am
    68    63    62    2
    69    84    83    2
    70    83    82    1
    71    62    61    1
    72     5     2    1
    73    76    77    1
    74    79    78    2
    75    64    61    1
    76    64    65    1
    77    40    35   am
    78    55    54    1
    79    86    85    1
    80     2     1    1
    81     2     3    1
    82    49    50    1
    83    77    78    1
    84    77    80    1
    85    78    81   am
    86    67    65   ar
    87    61    60    1
    88    50    51    1
    89    50    53    1
    90    81    82    1
    91    54    53    1
    92    65    66   ar
    93    82    85    1
    94    52    51    2
    95    85    87    1
    96    35    36    2
    97    35    34    1
    98    39    37    1
    99    37    34    1
   100    37    38    1
   101     3     4    2
   102    34    33    1
   103    14    12   ar
   104    11    12    1
   105    11     8    1
   106    12    13   ar
   107     7     8    1
   108     8     9    1
   109    18    17    2
   110    23    26    1
   111    23    22    1
   112    23    24    1
   113    26    27    1
   114    15     9   am
   115    15    16    1
   116    21    19    1
   117    17    22   am
   118    17    16    1
   119     9    10    2
   120    24    25    2
   121    16    19    1
   122    28    27    1
   123    28    29    1
   124    31    30    1
   125    19    20    1
   126    29    30    2
   127    30    32    1
