@<TRIPOS>MOLECULE
tmp/1rmyB00.pdb
 154 147 0 0 0
SMALL
GASTEIGER

@<TRIPOS>ATOM
      1  N         24.6780    2.5740   12.2280 N.3    41  ASP41      -0.1239
      2  CA        24.1890    3.5120   13.1950 C.3    41  ASP41       0.1674
      3  C         23.4980    2.6720   14.2800 C.2    41  ASP41       0.2266
      4  O         23.1420    1.5580   14.0170 O.2    41  ASP41      -0.2867
      5  CB        23.1290    4.3730   12.5040 C.3    41  ASP41       0.1410
      6  CG        22.4550    5.2730   13.4430 C.2    41  ASP41       0.3668
      7  OD1       23.1770    6.0280   14.1420 O.co2  41  ASP41      -0.2456
      8  OD2       21.2150    5.2770   13.5560 O.co2  41  ASP41      -0.2456
      9  N         20.8130    4.0700   16.9510 N.3    43  ASP43      -0.1225
     10  CA        19.4520    4.4230   17.3270 C.3    43  ASP43       0.1805
     11  C         18.5280    4.5330   16.1280 C.2    43  ASP43       0.2597
     12  O         18.7810    5.2710   15.2020 O.2    43  ASP43      -0.2718
     13  CB        19.4700    5.6830   18.1530 C.3    43  ASP43       0.1424
     14  CG        20.2770    5.4950   19.4120 C.2    43  ASP43       0.3668
     15  OD1       19.9820    4.4880   20.1030 O.co2  43  ASP43      -0.2456
     16  OD2       21.1820    6.2800   19.7870 O.co2  43  ASP43      -0.2456
     17  N         17.4580    3.7480   16.1830 N.am   44  ASP44      -0.1974
     18  CA        16.4840    3.5740   15.0870 C.3    44  ASP44       0.1709
     19  C         17.0520    2.8680   13.8830 C.2    44  ASP44       0.2293
     20  O         16.3660    2.7640   12.8460 O.2    44  ASP44      -0.2864
     21  CB        15.8010    4.8780   14.7080 C.3    44  ASP44       0.1436
     22  CG        14.6450    5.2050   15.6380 C.2    44  ASP44       0.3671
     23  OD1       13.8460    4.2780   15.9810 O.co2  44  ASP44      -0.2456
     24  OD2       14.5130    6.3510   16.1080 O.co2  44  ASP44      -0.2456
     25  N         15.5220    2.4480   20.5270 N.3    49  SER49      -0.1202
     26  CA        15.9900    2.9300   21.8240 C.3    49  SER49       0.2020
     27  C         15.1740    4.1040   22.3220 C.2    49  SER49       0.2619
     28  O         15.5430    4.7170   23.3200 O.2    49  SER49      -0.2717
     29  CB        17.4630    3.3650   21.6910 C.3    49  SER49       0.2103
     30  OG        17.5700    4.2770   20.6180 O.3    49  SER49      -0.2182
     31  N         14.0800    4.4370   21.6260 N.am   50  SER50      -0.1951
     32  CA        13.1230    5.4580   22.1240 C.3    50  SER50       0.1924
     33  C         12.6820    5.3520   23.6100 C.2    50  SER50       0.2314
     34  O         12.5670    6.3880   24.2730 O.2    50  SER50      -0.2863
     35  CB        11.8850    5.5290   21.2280 C.3    50  SER50       0.2116
     36  OG        12.1840    6.2440   20.0560 O.3    50  SER50      -0.2180
     37  N         15.2790    7.2300   25.5510 N.3    53  PHE53      -0.1241
     38  CA        15.3490    8.6480   25.2280 C.3    53  PHE53       0.1605
     39  C         14.0850    9.3440   25.7370 C.2    53  PHE53       0.2264
     40  O         14.1280   10.4970   26.2160 O.2    53  PHE53      -0.2867
     41  CB        15.5430    8.8390   23.7110 C.3    53  PHE53       0.0534
     42  CG        16.9490    8.5910   23.2510 C.ar   53  PHE53      -0.0203
     43  CD1       17.8570    9.6530   23.1760 C.ar   53  PHE53      -0.0042
     44  CD2       17.3510    7.3200   22.8340 C.ar   53  PHE53      -0.0042
     45  CE1       19.1600    9.4570   22.7800 C.ar   53  PHE53      -0.0003
     46  CE2       18.6760    7.1040   22.4060 C.ar   53  PHE53      -0.0003
     47  CZ        19.5900    8.2030   22.3700 C.ar   53  PHE53      -0.0000
     48  N         14.9440   19.8770   24.5450 N.3    65  GLU65      -0.1245
     49  CA        15.9020   18.8620   24.1040 C.3    65  GLU65       0.1567
     50  C         17.1980   18.9100   24.9110 C.2    65  GLU65       0.2260
     51  O         18.2060   18.2910   24.5220 O.2    65  GLU65      -0.2867
     52  CB        16.2250   19.0680   22.6240 C.3    65  GLU65       0.0388
     53  CG        14.9940   19.0070   21.7460 C.3    65  GLU65       0.1160
     54  CD        14.3270   17.6510   21.8240 C.2    65  GLU65       0.3649
     55  OE1       15.0410   16.6510   21.6450 O.co2  65  GLU65      -0.2457
     56  OE2       13.1050   17.5940   22.0710 O.co2  65  GLU65      -0.2457
     57  N         18.1650   17.5390   27.5880 N.3    67  TYR67      -0.1227
     58  CA        18.6430   16.2400   28.1100 C.3    67  TYR67       0.1736
     59  C         19.7490   15.6340   27.2460 C.2    67  TYR67       0.2595
     60  O         20.6370   14.9360   27.7530 O.2    67  TYR67      -0.2718
     61  CB        17.4930   15.2370   28.3210 C.3    67  TYR67       0.0548
     62  CG        16.9310   14.5650   27.0560 C.ar   67  TYR67      -0.0200
     63  CD1       17.1760   13.2110   26.7920 C.ar   67  TYR67      -0.0009
     64  CD2       16.1230   15.2770   26.1640 C.ar   67  TYR67      -0.0009
     65  CE1       16.6280   12.5630   25.6370 C.ar   67  TYR67       0.0417
     66  CE2       15.5710   14.6540   25.0030 C.ar   67  TYR67       0.0417
     67  CZ        15.8360   13.2990   24.7500 C.ar   67  TYR67       0.1957
     68  OH        15.3120   12.6630   23.6170 O.3    67  TYR67      -0.2866
     69  N         19.7140   15.9270   25.9460 N.am   68  LEU68      -0.1980
     70  CA        20.6980   15.4150   24.9920 C.3    68  LEU68       0.1596
     71  C         22.0960   16.0180   25.1470 C.2    68  LEU68       0.2287
     72  O         23.0450   15.5310   24.5540 O.2    68  LEU68      -0.2864
     73  CB        20.1990   15.6030   23.5380 C.3    68  LEU68       0.0297
     74  CG        18.9200   14.8080   23.2510 C.3    68  LEU68       0.0022
     75  CD1       18.2980   15.2450   21.9440 C.3    68  LEU68       0.0001
     76  CD2       19.2040   13.3140   23.2520 C.3    68  LEU68       0.0001
     77  N         23.2800   10.8050   29.6220 N.3    74  TRP74      -0.1241
     78  CA        24.0870    9.8610   28.8400 C.3    74  TRP74       0.1605
     79  C         24.6240    8.7290   29.6940 C.2    74  TRP74       0.2264
     80  O         24.7070    7.5800   29.2520 O.2    74  TRP74      -0.2867
     81  CB        25.2100   10.6030   28.1070 C.3    74  TRP74       0.0550
     82  CG        24.6850   11.4650   27.0000 C.ar   74  TRP74       0.0003
     83  CD1       24.7320   12.8230   26.8980 C.ar   74  TRP74       0.0946
     84  CD2       24.0390   10.9930   25.8290 C.ar   74  TRP74       0.0152
     85  NE1       24.1260   13.2290   25.7290 N.ar   74  TRP74      -0.2442
     86  CE2       23.7140   12.1090   25.0460 C.ar   74  TRP74       0.0810
     87  CE3       23.6840    9.7110   25.3690 C.ar   74  TRP74       0.0012
     88  CZ2       23.0330   12.0000   23.8310 C.ar   74  TRP74       0.0191
     89  CZ3       23.0460    9.6010   24.1600 C.ar   74  TRP74       0.0001
     90  CH2       22.6970   10.7330   23.4120 C.ar   74  TRP74       0.0015
     91  N         27.7960    5.8040   16.5140 N.3   109  THR109     -0.1203
     92  CA        26.6110    6.4670   17.0200 C.3   109  THR109      0.1994
     93  C         26.8630    7.9360   17.3800 C.2   109  THR109      0.2618
     94  O         27.9600    8.3240   17.8200 O.2   109  THR109     -0.2717
     95  CB        26.0660    5.6840   18.2600 C.3   109  THR109      0.1784
     96  OG1       24.8830    6.3440   18.7470 O.3   109  THR109     -0.2211
     97  CG2       27.0440    5.7720   19.4640 C.3   109  THR109      0.0376
     98  N         25.8160    8.7410   17.2070 N.am  110  GLY110     -0.1942
     99  CA        25.8220   10.1360   17.6140 C.3   110  GLY110      0.2014
    100  C         25.6210   10.3440   19.1130 C.2   110  GLY110      0.2638
    101  O         25.7570   11.4800   19.6070 O.2   110  GLY110     -0.2714
    102  N         25.3400    9.2660   19.8440 N.am  111  ARG111     -0.1977
    103  CA        25.3670    9.3410   21.3070 C.3   111  ARG111      0.1597
    104  C         26.7050    9.9010   21.8290 C.2   111  ARG111      0.2287
    105  O         27.7920    9.6540   21.2580 O.2   111  ARG111     -0.2864
    106  CB        25.1380    7.9670   21.9150 C.3   111  ARG111      0.0334
    107  CG        23.7690    7.3400   21.6740 C.3   111  ARG111      0.0492
    108  CD        23.5800    6.1670   22.6180 C.3   111  ARG111      0.2205
    109  NE        22.4120    5.3410   22.2890 N.pl3 111  ARG111     -0.0865
    110  CZ        22.0320    4.3220   23.0230 C.cat 111  ARG111      0.5346
    111  NH1       22.7080    4.0300   24.1560 N.pl3 111  ARG111      0.1354
    112  NH2       20.9760    3.5940   22.6440 N.pl3 111  ARG111      0.1354
    113  N         27.4750   14.4910   18.9890 N.3   142  ASP142     -0.1239
    114  CA        26.6480   15.3290   18.1290 C.3   142  ASP142      0.1674
    115  C         27.1200   16.7590   18.2890 C.2   142  ASP142      0.2266
    116  O         27.1850   17.2790   19.3900 O.2   142  ASP142     -0.2867
    117  CB        25.1780   15.2180   18.5480 C.3   142  ASP142      0.1410
    118  CG        24.3090   16.3220   17.9410 C.2   142  ASP142      0.3668
    119  OD1       24.1230   17.4300   18.5430 O.co2 142  ASP142     -0.2456
    120  OD2       23.8040   16.1520   16.8410 O.co2 142  ASP142     -0.2456
    121  N         30.3790   11.5450   12.3190 N.3   149  LYS149     -0.1245
    122  CA        30.5730   10.1430   11.9040 C.3   149  LYS149      0.1561
    123  C         31.5610   10.0170   10.7360 C.2   149  LYS149      0.2260
    124  O         32.3130    9.0530   10.6680 O.2   149  LYS149     -0.2867
    125  CB        29.2350    9.4700   11.6060 C.3   149  LYS149      0.0271
    126  CG        28.2830    9.4640   12.8170 C.3   149  LYS149      0.0035
    127  CD        27.0680    8.5730   12.5550 C.3   149  LYS149      0.0206
    128  CE        25.9980    8.8930   13.6020 C.3   149  LYS149      0.1093
    129  NZ        25.1780    7.6930   13.7720 N.3   149  LYS149     -0.1314
    130  N         19.2120    8.1070    9.6170 N.3   165  SER165     -0.1217
    131  CA        19.1560    9.5740    9.5090 C.3   165  SER165      0.1889
    132  C         19.8950   10.0700    8.2790 C.2   165  SER165      0.2288
    133  O         20.7940    9.3970    7.7280 O.2   165  SER165     -0.2866
    134  CB        19.6890   10.3150   10.7620 C.3   165  SER165      0.2089
    135  OG        19.1560    9.8050   11.9670 O.3   165  SER165     -0.2183
    136  N         10.3280    8.3470   19.1640 N.3   189  THR189     -0.1203
    137  CA        10.1180    9.6810   19.7000 C.3   189  THR189      0.1994
    138  C         10.9990   10.7290   19.0170 C.2   189  THR189      0.2617
    139  O         10.9230   11.8920   19.3500 O.2   189  THR189     -0.2717
    140  CB        10.3410    9.7450   21.2210 C.3   189  THR189      0.1784
    141  OG1       11.6830    9.3190   21.5460 O.3   189  THR189     -0.2211
    142  CG2        9.3540    8.8390   21.9950 C.3   189  THR189      0.0376
    143  N         11.8400   10.3200   18.0670 N.am  190  TYR190     -0.1975
    144  CA        12.7010   11.2450   17.3320 C.3   190  TYR190      0.1639
    145  C         12.0010   11.6750   16.0430 C.2   190  TYR190      0.2290
    146  O         11.9680   10.9380   15.0550 O.2   190  TYR190     -0.2864
    147  CB        14.0190   10.5370   17.0290 C.3   190  TYR190      0.0560
    148  CG        15.1260   11.4170   16.4790 C.ar  190  TYR190     -0.0198
    149  CD1       15.0370   12.7900   16.4950 C.ar  190  TYR190     -0.0009
    150  CD2       16.2790   10.8360   15.9690 C.ar  190  TYR190     -0.0009
    151  CE1       16.0630   13.5800   15.9920 C.ar  190  TYR190      0.0417
    152  CE2       17.3140   11.5950   15.4690 C.ar  190  TYR190      0.0417
    153  CZ        17.2070   12.9690   15.4910 C.ar  190  TYR190      0.1957
    154  OH        18.2270   13.7540   14.9820 O.3   190  TYR190     -0.2866
@<TRIPOS>BOND
     1   133   132    2
     2   132   131    1
     3   131   130    1
     4   131   134    1
     5   124   123    2
     6   123   122    1
     7   134   135    1
     8   125   122    1
     9   125   126    1
    10   122   121    1
    11     1     2    1
    12     5     2    1
    13     5     6    1
    14   127   126    1
    15   127   128    1
    16    20    19    2
    17     2     3    1
    18     6     8   ar
    19     6     7   ar
    20   128   129    1
    21    19    18    1
    22     4     3    2
    23    21    18    1
    24    21    22    1
    25   154   153    1
    26   146   145    2
    27    18    17    1
    28    12    11    2
    29   152   153   ar
    30   152   150   ar
    31   153   151   ar
    32    22    23   ar
    33    22    24   ar
    34   150   148   ar
    35   151   149   ar
    36   145   144    1
    37    11    17   am
    38    11    10    1
    39   148   149   ar
    40   148   147    1
    41    91    92    1
    42   120   118   ar
    43     9    10    1
    44    92    93    1
    45    92    95    1
    46   147   144    1
    47    98    93   am
    48    98    99    1
    49    10    13    1
    50   144   143    1
    51    93    94    2
    52    99   100    1
    53   118   119   ar
    54   118   117    1
    55   143   138   am
    56   114   115    1
    57   114   117    1
    58   114   113    1
    59    13    14    1
    60    95    96    1
    61    95    97    1
    62   115   116    2
    63   138   139    2
    64   138   137    1
    65   100   101    2
    66   100   102   am
    67   136   137    1
    68    14    16   ar
    69    14    15   ar
    70   137   140    1
    71   102   103    1
    72    36    35    1
    73    25    26    1
    74    30    29    1
    75   140   141    1
    76   140   142    1
    77    35    32    1
    78   105   104    2
    79   103   104    1
    80   103   106    1
    81    31    32    1
    82    31    27   am
    83    55    54   ar
    84   107   106    1
    85   107   108    1
    86    29    26    1
    87    53    54    1
    88    53    52    1
    89    26    27    1
    90    54    56   ar
    91    75    74    1
    92    32    33    1
    93   109   108    1
    94   109   110    2
    95    27    28    2
    96    47    46   ar
    97    47    45   ar
    98    46    44   ar
    99    52    49    1
   100   112   110    1
   101    45    43   ar
   102    44    42   ar
   103   110   111    1
   104    43    42   ar
   105    42    41    1
   106    74    76    1
   107    74    73    1
   108    90    88   ar
   109    90    89   ar
   110    73    70    1
   111    33    34    2
   112    68    67    1
   113    41    38    1
   114    88    86   ar
   115    49    48    1
   116    49    50    1
   117    89    87   ar
   118    51    50    2
   119    72    71    2
   120    67    66   ar
   121    67    65   ar
   122    70    71    1
   123    70    69    1
   124    66    64   ar
   125    86    85   ar
   126    86    84   ar
   127    38    37    1
   128    38    39    1
   129    87    84   ar
   130    65    63   ar
   131    85    83   ar
   132    39    40    2
   133    84    82   ar
   134    69    59   am
   135    64    62   ar
   136    63    62   ar
   137    83    82   ar
   138    82    81    1
   139    62    61    1
   140    59    60    2
   141    59    58    1
   142    57    58    1
   143    81    78    1
   144    58    61    1
   145    78    77    1
   146    78    79    1
   147    80    79    2
