@<TRIPOS>MOLECULE
tmp/1rnjA00.pdb
 95 89 0 0 0
SMALL
GASTEIGER

@<TRIPOS>ATOM
      1  N         30.6290   18.3820    6.5380 N.3    68  MET68      -0.1245
      2  CA        30.5110   17.3060    5.5360 C.3    68  MET68       0.1570
      3  C         31.7380   17.3850    4.6350 C.2    68  MET68       0.2261
      4  O         32.1030   18.4690    4.1590 O.2    68  MET68      -0.2867
      5  CB        29.2480   17.4910    4.7140 C.3    68  MET68       0.0387
      6  CG        27.9080   17.3230    5.4740 C.3    68  MET68       0.0595
      7  SD        26.4720   17.3060    4.2810 S.3    68  MET68      -0.1393
      8  CE        27.2250   16.5740    3.0550 C.3    68  MET68       0.0692
      9  N         32.3320   17.1210   -3.1710 N.3    82  LEU82      -0.1245
     10  CA        31.1980   17.9790   -2.8890 C.3    82  LEU82       0.1561
     11  C         31.2490   19.2570   -3.6890 C.2    82  LEU82       0.2260
     12  O         32.3200   19.8630   -3.8260 O.2    82  LEU82      -0.2867
     13  CB        31.1580   18.3100   -1.3990 C.3    82  LEU82       0.0270
     14  CG        31.1380   17.1230   -0.4390 C.3    82  LEU82       0.0019
     15  CD1       31.0940   17.6340    1.0060 C.3    82  LEU82       0.0001
     16  CD2       29.9450   16.2000   -0.6900 C.3    82  LEU82       0.0001
     17  N         29.9680   22.1360   -2.9490 N.3    84  ASN84      -0.1240
     18  CA        30.3210   23.2150   -2.0320 C.3    84  ASN84       0.1653
     19  C         31.6350   22.9650   -1.2940 C.2    84  ASN84       0.2266
     20  O         32.0120   23.7350   -0.3910 O.2    84  ASN84      -0.2867
     21  CB        29.1600   23.4700   -1.0590 C.3    84  ASN84       0.1155
     22  CG        28.7610   22.2510   -0.2300 C.2    84  ASN84       0.2627
     23  OD1       28.8320   21.0990   -0.6810 O.2    84  ASN84      -0.2716
     24  ND2       28.2330   22.5140    0.9670 N.am   84  ASN84      -0.0877
     25  N         30.8060   21.0630    3.5890 N.3    87  GLY87      -0.1210
     26  CA        29.5040   21.4950    4.0400 C.3    87  GLY87       0.1956
     27  C         29.5760   21.8070    5.5140 C.2    87  GLY87       0.2612
     28  O         30.2840   21.1230    6.2520 O.2    87  GLY87      -0.2717
     29  N         28.9070   22.8660    5.9230 N.am   88  LEU88      -0.1965
     30  CA        28.8520   23.2570    7.3300 C.3    88  LEU88       0.1728
     31  C         27.3980   23.1330    7.7510 C.2    88  LEU88       0.2616
     32  O         26.4930   23.7300    7.1200 O.2    88  LEU88      -0.2715
     33  CB        29.3700   24.6830    7.4970 C.3    88  LEU88       0.0311
     34  CG        29.2990   25.2960    8.8980 C.3    88  LEU88       0.0022
     35  CD1       30.2280   24.5630    9.8190 C.3    88  LEU88       0.0001
     36  CD2       29.6340   26.7700    8.8600 C.3    88  LEU88       0.0001
     37  N         27.1630   22.3650    8.8110 N.am   89  ILE89      -0.1963
     38  CA        25.8350   22.1780    9.3910 C.3    89  ILE89       0.1727
     39  C         25.7560   22.9360   10.7080 C.2    89  ILE89       0.2616
     40  O         26.4990   22.6240   11.6400 O.2    89  ILE89      -0.2715
     41  CB        25.5370   20.6930    9.6430 C.3    89  ILE89       0.0290
     42  CG1       25.9400   19.7980    8.4420 C.3    89  ILE89       0.0022
     43  CG2       24.0850   20.5260   10.0320 C.3    89  ILE89       0.0023
     44  CD1       25.3260   20.1530    7.1250 C.3    89  ILE89       0.0001
     45  N         24.8990   23.9490   10.7690 N.am   90  ASN90      -0.1972
     46  CA        24.7470   24.7870   11.9540 C.3    90  ASN90       0.1688
     47  C         23.9300   24.0940   13.0180 C.2    90  ASN90       0.2292
     48  O         23.0620   23.2580   12.7290 O.2    90  ASN90      -0.2864
     49  CB        24.0500   26.1120   11.5550 C.3    90  ASN90       0.1181
     50  CG        24.8720   26.9000   10.5700 C.2    90  ASN90       0.2629
     51  OD1       26.0200   27.2310   10.8460 O.2    90  ASN90      -0.2716
     52  ND2       24.3060   27.1860    9.3960 N.am   90  ASN90      -0.0877
     53  N         20.1310   24.2190   12.6040 N.3    93  TYR93      -0.1241
     54  CA        19.5190   23.7210   11.3740 C.3    93  TYR93       0.1605
     55  C         18.7190   22.4520   11.6650 C.2    93  TYR93       0.2264
     56  O         19.2390   21.5130   12.2730 O.2    93  TYR93      -0.2867
     57  CB        20.5950   23.3790   10.3610 C.3    93  TYR93       0.0534
     58  CG        20.0500   22.8780    9.0440 C.ar   93  TYR93      -0.0201
     59  CD1       20.2140   21.5370    8.6550 C.ar   93  TYR93      -0.0009
     60  CD2       19.4240   23.7440    8.1570 C.ar   93  TYR93      -0.0009
     61  CE1       19.7130   21.0890    7.4160 C.ar   93  TYR93       0.0417
     62  CE2       18.9450   23.2880    6.9140 C.ar   93  TYR93       0.0417
     63  CZ        19.1060   21.9600    6.5620 C.ar   93  TYR93       0.1957
     64  OH        18.6280   21.5000    5.3500 O.3    93  TYR93      -0.2866
     65  N         16.3640   18.7730    6.2140 N.3    96  GLN96      -0.1231
     66  CA        17.0260   17.5810    5.7060 C.3    96  GLN96       0.1698
     67  C         18.4970   17.8590    5.4040 C.2    96  GLN96       0.2592
     68  O         18.8320   18.9000    4.8360 O.2    96  GLN96      -0.2718
     69  CB        16.3460   17.1180    4.4220 C.3    96  GLN96       0.0381
     70  CG        16.8860   15.7990    3.9320 C.3    96  GLN96       0.0905
     71  CD        16.1220   15.1820    2.7640 C.2    96  GLN96       0.2608
     72  OE1       16.2850   14.0080    2.5040 O.2    96  GLN96      -0.2717
     73  NE2       15.3260   15.9630    2.0660 N.am   96  GLN96      -0.0878
     74  N         19.3680   16.9250    5.7620 N.am   97  LEU97      -0.1966
     75  CA        20.7720   17.0090    5.3730 C.3    97  LEU97       0.1728
     76  C         20.8860   16.6620    3.9100 C.2    97  LEU97       0.2616
     77  O         20.4280   15.5970    3.4890 O.2    97  LEU97      -0.2715
     78  CB        21.6330   16.0500    6.1710 C.3    97  LEU97       0.0311
     79  CG        21.8320   16.2880    7.6540 C.3    97  LEU97       0.0022
     80  CD1       22.7250   15.1740    8.2150 C.3    97  LEU97       0.0001
     81  CD2       22.4500   17.6750    7.8920 C.3    97  LEU97       0.0001
     82  N         21.4440   17.5730    3.1290 N.am   98  MET98      -0.1977
     83  CA        21.5570   17.3800    1.6710 C.3    98  MET98       0.1605
     84  C         23.0300   17.2910    1.3050 C.2    98  MET98       0.2287
     85  O         23.8680   17.9150    1.9540 O.2    98  MET98      -0.2864
     86  CB        20.9240   18.5670    0.9560 C.3    98  MET98       0.0413
     87  CG        19.4710   18.8430    1.3480 C.3    98  MET98       0.0598
     88  SD        18.3500   17.4540    1.0980 S.3    98  MET98      -0.1393
     89  CE        18.3000   17.3810   -0.6920 C.3    98  MET98       0.0692
     90  N         25.6600   17.8910   -1.8300 N.3   100  SER100     -0.1217
     91  CA        25.9370   18.4260   -3.1540 C.3   100  SER100      0.1889
     92  C         27.0700   17.5990   -3.7150 C.2   100  SER100      0.2288
     93  O         28.2200   17.7700   -3.2930 O.2   100  SER100     -0.2866
     94  CB        26.3270   19.9100   -3.0950 C.3   100  SER100      0.2089
     95  OG        26.8130   20.3640   -4.3400 O.3   100  SER100     -0.2183
@<TRIPOS>BOND
     1    95    94    1
     2    12    11    2
     3    92    93    2
     4    92    91    1
     5    11    10    1
     6     9    10    1
     7    91    94    1
     8    91    90    1
     9    17    18    1
    10    10    13    1
    11    18    19    1
    12    18    21    1
    13    13    14    1
    14    19    20    2
    15    21    22    1
    16    89    88    1
    17    16    14    1
    18    23    22    2
    19    14    15    1
    20    22    24   am
    21    86    87    1
    22    86    83    1
    23    88    87    1
    24    84    83    1
    25    84    85    2
    26    83    82    1
    27    73    71   am
    28    72    71    2
    29    71    70    1
    30     8     7    1
    31    82    76   am
    32    77    76    2
    33    25    26    1
    34    76    75    1
    35    70    69    1
    36    26    27    1
    37     4     3    2
    38     7     6    1
    39    69    66    1
    40     3     2    1
    41     5     6    1
    42     5     2    1
    43    68    67    2
    44    64    63    1
    45    75    74    1
    46    75    78    1
    47    67    66    1
    48    67    74   am
    49    27    29   am
    50    27    28    2
    51     2     1    1
    52    66    65    1
    53    29    30    1
    54    78    79    1
    55    63    62   ar
    56    63    61   ar
    57    62    60   ar
    58    32    31    2
    59    44    42    1
    60    30    33    1
    61    30    31    1
    62    61    59   ar
    63    33    34    1
    64    79    81    1
    65    79    80    1
    66    31    37   am
    67    60    58   ar
    68    42    41    1
    69    59    58   ar
    70    37    38    1
    71    36    34    1
    72    34    35    1
    73    58    57    1
    74    38    41    1
    75    38    39    1
    76    52    50   am
    77    41    43    1
    78    57    54    1
    79    50    51    2
    80    50    49    1
    81    39    45   am
    82    39    40    2
    83    45    46    1
    84    54    55    1
    85    54    53    1
    86    49    46    1
    87    55    56    2
    88    46    47    1
    89    48    47    2
