@<TRIPOS>MOLECULE
tmp/1ro8B00.pdb
 122 119 0 0 0
SMALL
GASTEIGER

@<TRIPOS>ATOM
      1  N         64.4600   22.2160   27.1080 N.3     7  GLY7       -0.1210
      2  CA        64.5540   22.5430   25.7020 C.3     7  GLY7        0.1956
      3  C         63.7530   21.4180   25.0700 C.2     7  GLY7        0.2612
      4  O         63.1640   20.6130   25.7980 O.2     7  GLY7       -0.2717
      5  N         63.7150   21.3360   23.7450 N.am    8  ASN8       -0.1960
      6  CA        62.9530   20.2710   23.1010 C.3     8  ASN8        0.1819
      7  C         63.8580   19.2010   22.4890 C.2     8  ASN8        0.2622
      8  O         63.4520   18.4800   21.5730 O.2     8  ASN8       -0.2715
      9  CB        62.0280   20.8590   22.0320 C.3     8  ASN8        0.1195
     10  CG        61.0380   21.8500   22.6100 C.2     8  ASN8        0.2630
     11  OD1       60.4230   21.5920   23.6440 O.2     8  ASN8       -0.2716
     12  ND2       60.8770   22.9870   21.9460 N.am    8  ASN8       -0.0877
     13  N         65.0810   19.1030   23.0110 N.am    9  GLY9       -0.1940
     14  CA        66.0340   18.1260   22.5120 C.3     9  GLY9        0.1998
     15  C         65.6410   16.6970   22.8340 C.2     9  GLY9        0.2480
     16  O         64.7600   16.4730   23.6600 O.2     9  GLY9       -0.2729
     17  N         66.2800   15.6990   22.1970 N.am   10  PRO10      -0.2726
     18  CA        65.9670   14.2900   22.4450 C.3    10  PRO10       0.1402
     19  C         66.1900   13.8140   23.8820 C.2    10  PRO10       0.2269
     20  O         65.6140   12.8090   24.2950 O.2    10  PRO10      -0.2865
     21  CB        66.8510   13.5560   21.4320 C.3    10  PRO10       0.0296
     22  CG        68.0020   14.4910   21.2380 C.3    10  PRO10       0.0237
     23  CD        67.3160   15.8290   21.1580 C.3    10  PRO10       0.0939
     24  N         59.2760   25.7850   26.0970 N.3    29  CYS29      -0.1221
     25  CA        59.3790   26.7440   25.0000 C.3    29  CYS29       0.1808
     26  C         58.9910   26.1770   23.6310 C.2    29  CYS29       0.2601
     27  O         59.0410   24.9720   23.4010 O.2    29  CYS29      -0.2717
     28  CB        60.8050   27.2900   24.9050 C.3    29  CYS29       0.0970
     29  SG        62.0080   26.0940   24.2600 S.3    29  CYS29      -0.0800
     30  N         58.5880   27.0750   22.7410 N.am   30  ASN30      -0.1960
     31  CA        58.2250   26.7450   21.3640 C.3    30  ASN30       0.1819
     32  C         57.3180   25.5190   21.1690 C.2    30  ASN30       0.2621
     33  O         56.2520   25.4370   21.7720 O.2    30  ASN30      -0.2715
     34  CB        59.5170   26.6210   20.5420 C.3    30  ASN30       0.1195
     35  CG        60.3780   27.8890   20.6170 C.2    30  ASN30       0.2630
     36  OD1       61.5810   27.8620   20.3630 O.2    30  ASN30      -0.2716
     37  ND2       59.7520   29.0040   20.9580 N.am   30  ASN30      -0.0877
     38  N         57.7360   24.5710   20.3320 N.am   31  GLN31      -0.1977
     39  CA        56.9150   23.3870   20.0440 C.3    31  GLN31       0.1601
     40  C         56.9600   22.2620   21.0740 C.2    31  GLN31       0.2287
     41  O         56.9330   21.0800   20.7160 O.2    31  GLN31      -0.2864
     42  CB        57.2840   22.8180   18.6660 C.3    31  GLN31       0.0394
     43  CG        57.0530   23.7880   17.5190 C.3    31  GLN31       0.0908
     44  CD        58.1240   24.8620   17.4360 C.2    31  GLN31       0.2608
     45  OE1       57.8640   25.9790   16.9800 O.2    31  GLN31      -0.2717
     46  NE2       59.3430   24.5230   17.8620 N.am   31  GLN31      -0.0878
     47  N         59.2520   32.3390   20.3220 N.3    50  ASN50      -0.1240
     48  CA        60.0070   33.3160   19.5590 C.3    50  ASN50       0.1653
     49  C         59.0310   34.3160   18.9620 C.2    50  ASN50       0.2266
     50  O         57.9060   33.9660   18.6080 O.2    50  ASN50      -0.2867
     51  CB        60.7910   32.6350   18.4420 C.3    50  ASN50       0.1155
     52  CG        61.8230   31.6650   18.9720 C.2    50  ASN50       0.2627
     53  OD1       62.6150   32.0050   19.8540 O.2    50  ASN50      -0.2716
     54  ND2       61.8250   30.4510   18.4340 N.am   50  ASN50      -0.0877
     55  N         70.6310   29.9390   22.5160 N.3   129  THR129     -0.1203
     56  CA        69.3680   29.3050   22.1600 C.3   129  THR129      0.1994
     57  C         68.3110   29.6400   23.2150 C.2   129  THR129      0.2619
     58  O         68.6200   30.2340   24.2440 O.2   129  THR129     -0.2717
     59  CB        69.5190   27.7690   22.0660 C.3   129  THR129      0.1784
     60  OG1       69.9360   27.2440   23.3360 O.3   129  THR129     -0.2211
     61  CG2       70.5530   27.4020   21.0140 C.3   129  THR129      0.0376
     62  N         67.0690   29.2480   22.9570 N.am  130  SER130     -0.1937
     63  CA        65.9700   29.5130   23.8780 C.3   130  SER130      0.2055
     64  C         66.1860   28.9280   25.2730 C.2   130  SER130      0.2643
     65  O         65.7420   29.5030   26.2620 O.2   130  SER130     -0.2714
     66  CB        64.6630   28.9770   23.2940 C.3   130  SER130      0.2130
     67  OG        64.3810   29.6040   22.0560 O.3   130  SER130     -0.2179
     68  N         66.8550   27.7810   25.3470 N.am  131  GLY131     -0.1954
     69  CA        67.1130   27.1600   26.6330 C.3   131  GLY131      0.1869
     70  C         67.8800   28.1020   27.5390 C.2   131  GLY131      0.2309
     71  O         67.5760   28.2250   28.7300 O.2   131  GLY131     -0.2863
     72  N         66.4020   18.3600   28.0290 N.3   149  GLY149     -0.1210
     73  CA        66.1130   18.6460   26.6330 C.3   149  GLY149      0.1956
     74  C         67.0780   19.5920   25.9400 C.2   149  GLY149      0.2612
     75  O         66.7360   20.2050   24.9270 O.2   149  GLY149     -0.2717
     76  N         68.2810   19.7330   26.4810 N.am  150  ILE150     -0.1965
     77  CA        69.2730   20.6030   25.8650 C.3   150  ILE150      0.1727
     78  C         70.4230   19.7460   25.3540 C.2   150  ILE150      0.2616
     79  O         71.2480   19.2700   26.1290 O.2   150  ILE150     -0.2715
     80  CB        69.8010   21.6590   26.8630 C.3   150  ILE150      0.0290
     81  CG1       68.6760   22.6400   27.2140 C.3   150  ILE150      0.0022
     82  CG2       70.9800   22.4090   26.2590 C.3   150  ILE150      0.0023
     83  CD1       69.0760   23.7000   28.2070 C.3   150  ILE150      0.0001
     84  N         70.4600   19.5530   24.0390 N.am  151  ASP151     -0.1957
     85  CA        71.4820   18.7380   23.4040 C.3   151  ASP151      0.1840
     86  C         72.1730   19.4660   22.2520 C.2   151  ASP151      0.2622
     87  O         72.5650   18.8480   21.2620 O.2   151  ASP151     -0.2715
     88  CB        70.8570   17.4420   22.8870 C.3   151  ASP151      0.1450
     89  CG        70.0130   16.7410   23.9340 C.2   151  ASP151      0.3671
     90  OD1       68.8530   17.1510   24.1490 O.co2 151  ASP151     -0.2456
     91  OD2       70.5130   15.7820   24.5510 O.co2 151  ASP151     -0.2456
     92  N         72.3110   20.7810   22.3900 N.am  152  PHE152     -0.1960
     93  CA        72.9660   21.6230   21.3890 C.3   152  PHE152      0.1771
     94  C         72.7070   21.1710   19.9520 C.2   152  PHE152      0.2619
     95  O         73.5710   21.3110   19.0820 O.2   152  PHE152     -0.2715
     96  CB        74.4770   21.6540   21.6490 C.3   152  PHE152      0.0574
     97  CG        74.8380   21.6730   23.1090 C.ar  152  PHE152     -0.0200
     98  CD1       75.2770   20.5160   23.7440 C.ar  152  PHE152     -0.0042
     99  CD2       74.7060   22.8400   23.8590 C.ar  152  PHE152     -0.0042
    100  CE1       75.5790   20.5160   25.1050 C.ar  152  PHE152     -0.0003
    101  CE2       75.0040   22.8510   25.2190 C.ar  152  PHE152     -0.0003
    102  CZ        75.4410   21.6870   25.8450 C.ar  152  PHE152     -0.0000
    103  N         71.5130   20.6420   19.7060 N.am  153  TYR153     -0.1974
    104  CA        71.1410   20.1610   18.3790 C.3   153  TYR153      0.1639
    105  C         72.1170   19.0970   17.8810 C.2   153  TYR153      0.2290
    106  O         72.5910   19.2230   16.7310 O.2   153  TYR153     -0.2864
    107  CB        71.0970   21.3210   17.3770 C.3   153  TYR153      0.0560
    108  CG        70.0210   22.3480   17.6550 C.ar  153  TYR153     -0.0198
    109  CD1       70.1290   23.2310   18.7300 C.ar  153  TYR153     -0.0009
    110  CD2       68.8930   22.4400   16.8390 C.ar  153  TYR153     -0.0009
    111  CE1       69.1380   24.1820   18.9840 C.ar  153  TYR153      0.0417
    112  CE2       67.8980   23.3860   17.0840 C.ar  153  TYR153      0.0417
    113  CZ        68.0280   24.2530   18.1550 C.ar  153  TYR153      0.1957
    114  OH        67.0540   25.1970   18.3910 O.3   153  TYR153     -0.2866
    115  N         76.2690   28.3460   23.9040 N.3   157  ASP157     -0.1239
    116  CA        75.3550   28.1130   25.0170 C.3   157  ASP157      0.1674
    117  C         76.0870   27.8180   26.3140 C.2   157  ASP157      0.2266
    118  O         75.7450   28.3700   27.3570 O.2   157  ASP157     -0.2867
    119  CB        74.3940   26.9720   24.7040 C.3   157  ASP157      0.1410
    120  CG        73.1690   27.4410   23.9490 C.2   157  ASP157      0.3668
    121  OD1       72.3050   26.5960   23.6400 O.co2 157  ASP157     -0.2456
    122  OD2       73.0690   28.6570   23.6710 O.co2 157  ASP157     -0.2456
@<TRIPOS>BOND
     1   106   105    2
     2   110   112   ar
     3   110   108   ar
     4    45    44    2
     5   112   113   ar
     6   107   108    1
     7   107   104    1
     8    44    43    1
     9    44    46   am
    10    43    42    1
    11   108   109   ar
    12   105   104    1
    13   113   114    1
    14   113   111   ar
    15   104   103    1
    16    54    52   am
    17    51    52    1
    18    51    48    1
    19    50    49    2
    20    42    39    1
    21   109   111   ar
    22    49    48    1
    23    52    53    2
    24    95    94    2
    25    48    47    1
    26   103    94   am
    27    94    93    1
    28    39    38    1
    29    39    40    1
    30    38    32   am
    31    36    35    2
    32    34    35    1
    33    34    31    1
    34    35    37   am
    35    41    40    2
    36    61    59    1
    37    23    22    1
    38    23    17    1
    39    32    31    1
    40    32    33    2
    41    22    21    1
    42    87    86    2
    43    31    30    1
    44    93    96    1
    45    93    92    1
    46    21    18    1
    47     8     7    2
    48    96    97    1
    49    12    10   am
    50     9    10    1
    51     9     6    1
    52    67    66    1
    53    59    56    1
    54    59    60    1
    55    56    55    1
    56    56    57    1
    57    17    18    1
    58    17    15   am
    59    86    92   am
    60    86    85    1
    61    18    19    1
    62     7    13   am
    63     7     6    1
    64    14    15    1
    65    14    13    1
    66    10    11    2
    67    30    26   am
    68    15    16    2
    69    88    85    1
    70    88    89    1
    71    62    57   am
    72    62    63    1
    73     6     5    1
    74    97    98   ar
    75    97    99   ar
    76    57    58    2
    77    66    63    1
    78    27    26    2
    79    85    84    1
    80    26    25    1
    81   121   120   ar
    82   122   120   ar
    83    98   100   ar
    84     5     3   am
    85    99   101   ar
    86    63    64    1
    87    19    20    2
    88   115   116    1
    89    89    90   ar
    90    89    91   ar
    91   120   119    1
    92    84    78   am
    93    29    28    1
    94   119   116    1
    95    28    25    1
    96    75    74    2
    97    25    24    1
    98   116   117    1
    99     3     2    1
   100     3     4    2
   101   100   102   ar
   102   101   102   ar
   103    64    68   am
   104    64    65    2
   105    68    69    1
   106    78    77    1
   107    78    79    2
   108     2     1    1
   109    77    76    1
   110    77    80    1
   111    74    76   am
   112    74    73    1
   113    82    80    1
   114   117   118    2
   115    69    70    1
   116    73    72    1
   117    80    81    1
   118    81    83    1
   119    70    71    2
