@<TRIPOS>MOLECULE
tmp/1rosB00.pdb
 191 190 0 0 0
SMALL
GASTEIGER

@<TRIPOS>ATOM
      1  N         34.1520   89.4170   22.4380 N.3    74  GLY74      -0.1210
      2  CA        34.9610   89.7600   21.2820 C.3    74  GLY74       0.1956
      3  C         36.4240   89.8870   21.6670 C.2    74  GLY74       0.2612
      4  O         36.9960   88.9750   22.2640 O.2    74  GLY74      -0.2717
      5  N         37.0370   91.0180   21.3350 N.am   75  ILE75      -0.1965
      6  CA        38.4390   91.2350   21.6760 C.3    75  ILE75       0.1727
      7  C         38.5480   91.4860   23.1790 C.2    75  ILE75       0.2616
      8  O         37.8800   92.3610   23.7180 O.2    75  ILE75      -0.2715
      9  CB        39.0170   92.4220   20.8670 C.3    75  ILE75       0.0290
     10  CG1       39.1500   92.0080   19.3960 C.3    75  ILE75       0.0022
     11  CG2       40.3690   92.8430   21.4270 C.3    75  ILE75       0.0023
     12  CD1       39.6590   93.1090   18.4800 C.3    75  ILE75       0.0001
     13  N         39.3910   90.7080   23.8500 N.am   76  LEU76      -0.1963
     14  CA        39.5530   90.8200   25.2970 C.3    76  LEU76       0.1728
     15  C         40.6740   91.7650   25.7020 C.2    76  LEU76       0.2616
     16  O         40.6640   92.3350   26.7980 O.2    76  LEU76      -0.2715
     17  CB        39.8350   89.4390   25.8880 C.3    76  LEU76       0.0311
     18  CG        38.8610   88.3250   25.4990 C.3    76  LEU76       0.0022
     19  CD1       39.3710   86.9850   26.0180 C.3    76  LEU76       0.0001
     20  CD2       37.4830   88.6390   26.0560 C.3    76  LEU76       0.0001
     21  N         41.6420   91.9180   24.8080 N.am   77  ALA77      -0.1963
     22  CA        42.8000   92.7550   25.0600 C.3    77  ALA77       0.1728
     23  C         43.6500   92.7920   23.7990 C.2    77  ALA77       0.2616
     24  O         43.3520   92.1160   22.8150 O.2    77  ALA77      -0.2715
     25  CB        43.6100   92.1680   26.2120 C.3    77  ALA77       0.0334
     26  N         44.7060   93.5930   23.8250 N.am   78  HIS78      -0.1959
     27  CA        45.5960   93.6740   22.6800 C.3    78  HIS78       0.1787
     28  C         46.9330   94.2540   23.1060 C.2    78  HIS78       0.2620
     29  O         47.0360   94.8900   24.1610 O.2    78  HIS78      -0.2715
     30  CB        44.9490   94.4800   21.5310 C.3    78  HIS78       0.0785
     31  CG        44.6170   95.9030   21.8670 C.ar   78  HIS78       0.0821
     32  ND1       43.6210   96.5980   21.2150 N.ar   78  HIS78      -0.2267
     33  CD2       45.1730   96.7770   22.7420 C.ar   78  HIS78       0.1154
     34  CE1       43.5770   97.8370   21.6720 C.ar   78  HIS78       0.1986
     35  NE2       44.5080   97.9720   22.5990 N.ar   78  HIS78      -0.2212
     36  N         47.9590   94.0190   22.2970 N.am   79  ALA79      -0.1977
     37  CA        49.2940   94.4920   22.6220 C.3    79  ALA79       0.1597
     38  C         50.0720   94.8390   21.3650 C.2    79  ALA79       0.2287
     39  O         49.8030   94.3010   20.2940 O.2    79  ALA79      -0.2864
     40  CB        50.0410   93.4150   23.4180 C.3    79  ALA79       0.0319
     41  N         46.2760   84.4360   32.4650 N.3   109  LEU109     -0.1231
     42  CA        46.3750   83.7490   31.1760 C.3   109  LEU109      0.1693
     43  C         46.3310   84.7230   30.0070 C.2   109  LEU109      0.2592
     44  O         47.0620   84.5710   29.0270 O.2   109  LEU109     -0.2718
     45  CB        45.2510   82.7220   31.0310 C.3   109  LEU109      0.0284
     46  CG        45.3150   81.5190   31.9800 C.3   109  LEU109      0.0019
     47  CD1       44.0860   80.6520   31.7820 C.3   109  LEU109      0.0001
     48  CD2       46.5830   80.7140   31.7210 C.3   109  LEU109      0.0001
     49  N         45.4720   85.7270   30.1130 N.am  110  THR110     -0.1953
     50  CA        45.3600   86.7100   29.0560 C.3   110  THR110      0.1897
     51  C         46.6580   87.5080   28.9670 C.2   110  THR110      0.2313
     52  O         47.1360   87.7940   27.8720 O.2   110  THR110     -0.2863
     53  CB        44.1760   87.6450   29.3100 C.3   110  THR110      0.1794
     54  OG1       42.9760   86.8620   29.4030 O.3   110  THR110     -0.2208
     55  CG2       44.0290   88.6490   28.1720 C.3   110  THR110      0.0378
     56  N         49.5610   85.7650   27.2010 N.3   113  HIS113     -0.1226
     57  CA        49.3610   85.8430   25.7540 C.3   113  HIS113      0.1752
     58  C         49.7600   87.2210   25.2320 C.2   113  HIS113      0.2595
     59  O         50.5260   87.3370   24.2770 O.2   113  HIS113     -0.2718
     60  CB        47.8910   85.5690   25.4080 C.3   113  HIS113      0.0759
     61  CG        47.5730   85.7360   23.9540 C.ar  113  HIS113      0.0818
     62  ND1       47.7010   84.7130   23.0390 N.ar  113  HIS113     -0.2268
     63  CD2       47.1800   86.8240   23.2500 C.ar  113  HIS113      0.1154
     64  CE1       47.4040   85.1650   21.8330 C.ar  113  HIS113      0.1986
     65  NE2       47.0860   86.4450   21.9330 N.ar  113  HIS113     -0.2212
     66  N         49.2420   88.2660   25.8690 N.am  114  GLU114     -0.1979
     67  CA        49.5420   89.6310   25.4540 C.3   114  GLU114      0.1602
     68  C         51.0210   89.9900   25.5880 C.2   114  GLU114      0.2287
     69  O         51.5790   90.6500   24.7150 O.2   114  GLU114     -0.2864
     70  CB        48.7010   90.6320   26.2530 C.3   114  GLU114      0.0415
     71  CG        47.1920   90.5420   26.0130 C.3   114  GLU114      0.1163
     72  CD        46.8200   90.5790   24.5420 C.2   114  GLU114      0.3649
     73  OE1       47.5450   91.2250   23.7560 O.co2 114  GLU114     -0.2457
     74  OE2       45.7910   89.9680   24.1700 O.co2 114  GLU114     -0.2457
     75  N         53.0100   88.9740   22.7670 N.3   117  HIS117     -0.1241
     76  CA        52.9700   89.9370   21.6720 C.3   117  HIS117      0.1621
     77  C         53.8960   91.1050   21.9990 C.2   117  HIS117      0.2264
     78  O         54.5820   91.6290   21.1250 O.2   117  HIS117     -0.2867
     79  CB        51.5530   90.4680   21.4590 C.3   117  HIS117      0.0745
     80  CG        50.5960   89.4550   20.9110 C.ar  117  HIS117      0.0817
     81  ND1       50.9400   88.5680   19.9130 N.ar  117  HIS117     -0.2268
     82  CD2       49.2810   89.2490   21.1600 C.ar  117  HIS117      0.1154
     83  CE1       49.8780   87.8610   19.5700 C.ar  117  HIS117      0.1986
     84  NE2       48.8570   88.2570   20.3090 N.ar  117  HIS117     -0.2212
     85  N         56.2000   88.0000   19.7320 N.3   121  LEU121     -0.1231
     86  CA        55.6220   86.7590   19.2250 C.3   121  LEU121      0.1693
     87  C         54.2710   86.9690   18.5590 C.2   121  LEU121      0.2593
     88  O         53.4430   87.7490   19.0320 O.2   121  LEU121     -0.2718
     89  CB        55.4570   85.7400   20.3530 C.3   121  LEU121      0.0284
     90  CG        56.7360   85.2080   20.9970 C.3   121  LEU121      0.0019
     91  CD1       56.3780   84.2200   22.0950 C.3   121  LEU121      0.0001
     92  CD2       57.5970   84.5410   19.9360 C.3   121  LEU121      0.0001
     93  N         54.0650   86.2600   17.4530 N.am  122  GLY122     -0.1942
     94  CA        52.8050   86.3250   16.7380 C.3   122  GLY122      0.2014
     95  C         51.9760   85.1160   17.1570 C.2   122  GLY122      0.2638
     96  O         52.3080   84.4470   18.1340 O.2   122  GLY122     -0.2714
     97  N         50.9080   84.8290   16.4200 N.am  123  HIS123     -0.1973
     98  CA        50.0340   83.7020   16.7310 C.3   123  HIS123      0.1656
     99  C         50.5030   82.3920   16.1220 C.2   123  HIS123      0.2291
    100  O         50.9070   82.3370   14.9610 O.2   123  HIS123     -0.2864
    101  CB        48.6170   83.9810   16.2400 C.3   123  HIS123      0.0771
    102  CG        47.8870   85.0010   17.0490 C.ar  123  HIS123      0.0820
    103  ND1       46.9410   85.8400   16.5060 N.ar  123  HIS123     -0.2267
    104  CD2       47.9490   85.3050   18.3680 C.ar  123  HIS123      0.1154
    105  CE1       46.4520   86.6200   17.4530 C.ar  123  HIS123      0.1986
    106  NE2       47.0450   86.3140   18.5920 N.ar  123  HIS123     -0.2212
    107  N         48.1350   73.9050   21.4530 N.3   128  LYS128     -0.1231
    108  CA        48.7570   73.7140   22.7510 C.3   128  LYS128      0.1693
    109  C         49.3590   75.0200   23.2510 C.2   128  LYS128      0.2592
    110  O         49.5280   75.2220   24.4510 O.2   128  LYS128     -0.2718
    111  CB        49.8940   72.6830   22.6720 C.3   128  LYS128      0.0285
    112  CG        49.5260   71.3110   22.1050 C.3   128  LYS128      0.0035
    113  CD        50.7490   70.3860   22.1210 C.3   128  LYS128      0.0206
    114  CE        50.4100   69.0040   21.5790 C.3   128  LYS128      0.1093
    115  NZ        49.9920   69.0460   20.1530 N.3   128  LYS128     -0.1314
    116  N         49.6890   75.8980   22.3110 N.am  129  ALA129     -0.1966
    117  CA        50.3300   77.1790   22.6030 C.3   129  ALA129      0.1728
    118  C         49.4850   78.2740   23.2580 C.2   129  ALA129      0.2616
    119  O         48.2960   78.4120   22.9840 O.2   129  ALA129     -0.2715
    120  CB        50.9680   77.7250   21.3270 C.3   129  ALA129      0.0334
    121  N         50.1200   79.0630   24.1220 N.am  130  VAL130     -0.1977
    122  CA        49.4410   80.1740   24.7810 C.3   130  VAL130      0.1596
    123  C         49.3080   81.2700   23.7270 C.2   130  VAL130      0.2287
    124  O         48.5050   82.1920   23.8660 O.2   130  VAL130     -0.2864
    125  CB        50.2680   80.7290   25.9680 C.3   130  VAL130      0.0276
    126  CG1       51.5260   81.4060   25.4550 C.3   130  VAL130      0.0022
    127  CG2       49.4320   81.7140   26.7780 C.3   130  VAL130      0.0022
    128  N         48.2570   80.7590   20.7570 N.3   132  PHE132     -0.1228
    129  CA        47.2430   80.3640   19.7890 C.3   132  PHE132      0.1721
    130  C         46.3510   81.6020   19.7730 C.2   132  PHE132      0.2437
    131  O         46.2200   82.2870   20.7890 O.2   132  PHE132     -0.2733
    132  CB        46.4650   79.1420   20.2870 C.3   132  PHE132      0.0547
    133  CG        45.5130   78.5770   19.2730 C.ar  132  PHE132     -0.0202
    134  CD1       45.9870   77.9300   18.1420 C.ar  132  PHE132     -0.0042
    135  CD2       44.1470   78.7230   19.4340 C.ar  132  PHE132     -0.0042
    136  CE1       45.1140   77.4390   17.1880 C.ar  132  PHE132     -0.0003
    137  CE2       43.2610   78.2360   18.4800 C.ar  132  PHE132     -0.0003
    138  CZ        43.7460   77.5940   17.3560 C.ar  132  PHE132     -0.0000
    139  N         45.7410   81.9210   18.6260 N.am  133  PRO133     -0.2718
    140  CA        44.8860   83.1130   18.5710 C.3   133  PRO133      0.1535
    141  C         43.5820   83.1420   19.3640 C.2   133  PRO133      0.2599
    142  O         42.9960   84.2110   19.5390 O.2   133  PRO133     -0.2715
    143  CB        44.6600   83.3110   17.0690 C.3   133  PRO133      0.0310
    144  CG        44.8210   81.9480   16.4980 C.3   133  PRO133      0.0237
    145  CD        45.9470   81.3450   17.2870 C.3   133  PRO133      0.0939
    146  N         43.1340   81.9910   19.8530 N.am  134  THR134     -0.1937
    147  CA        41.8830   81.9230   20.5970 C.3   134  THR134      0.2028
    148  C         42.0510   81.7050   22.0990 C.2   134  THR134      0.2642
    149  O         42.7510   80.7860   22.5350 O.2   134  THR134     -0.2714
    150  CB        40.9710   80.8040   20.0300 C.3   134  THR134      0.1808
    151  OG1       40.7720   81.0120   18.6230 O.3   134  THR134     -0.2208
    152  CG2       39.6170   80.8140   20.7160 C.3   134  THR134      0.0379
    153  N         41.4050   82.5620   22.8850 N.am  135  TYR135     -0.1959
    154  CA        41.4660   82.4790   24.3490 C.3   135  TYR135      0.1771
    155  C         41.0100   81.1230   24.8750 C.2   135  TYR135      0.2619
    156  O         40.0790   80.5270   24.3540 O.2   135  TYR135     -0.2715
    157  CB        40.6100   83.5890   24.9760 C.3   135  TYR135      0.0574
    158  CG        40.4330   83.4770   26.4870 C.ar  135  TYR135     -0.0198
    159  CD1       39.4450   82.6620   27.0350 C.ar  135  TYR135     -0.0009
    160  CD2       41.2660   84.1680   27.3630 C.ar  135  TYR135     -0.0009
    161  CE1       39.2940   82.5360   28.4030 C.ar  135  TYR135      0.0417
    162  CE2       41.1210   84.0490   28.7400 C.ar  135  TYR135      0.0417
    163  CZ        40.1340   83.2290   29.2520 C.ar  135  TYR135      0.1957
    164  OH        40.0020   83.0860   30.6190 O.3   135  TYR135     -0.2866
    165  N         41.6740   80.6420   25.9140 N.am  136  LYS136     -0.1977
    166  CA        41.3100   79.3690   26.4980 C.3   136  LYS136      0.1596
    167  C         41.6130   79.3970   27.9780 C.2   136  LYS136      0.2287
    168  O         42.6470   79.9250   28.4130 O.2   136  LYS136     -0.2864
    169  CB        42.0880   78.2210   25.8450 C.3   136  LYS136      0.0298
    170  CG        41.8960   76.8660   26.5260 C.3   136  LYS136      0.0038
    171  CD        42.4460   75.7300   25.6680 C.3   136  LYS136      0.0206
    172  CE        43.2560   74.7290   26.4940 C.3   136  LYS136      0.1093
    173  NZ        43.6250   73.5140   25.6960 N.3   136  LYS136     -0.1314
    174  N         42.3720   77.4620   31.5850 N.3   138  VAL138     -0.1245
    175  CA        42.9900   76.2560   32.1240 C.3   138  VAL138      0.1561
    176  C         43.3280   76.5960   33.5630 C.2   138  VAL138      0.2260
    177  O         43.4320   77.7720   33.9190 O.2   138  VAL138     -0.2867
    178  CB        44.3100   75.8690   31.4060 C.3   138  VAL138      0.0252
    179  CG1       44.0450   75.5780   29.9310 C.3   138  VAL138      0.0019
    180  CG2       45.3380   76.9770   31.5730 C.3   138  VAL138      0.0019
    181  N         49.3510   75.6920   34.5570 N.3   143  PHE143     -0.1241
    182  CA        49.5900   76.2570   33.2340 C.3   143  PHE143      0.1605
    183  C         51.0620   76.1640   32.8600 C.2   143  PHE143      0.2264
    184  O         51.9400   76.3430   33.7020 O.2   143  PHE143     -0.2867
    185  CB        49.1800   77.7300   33.1820 C.3   143  PHE143      0.0534
    186  CG        49.7360   78.4620   31.9890 C.ar  143  PHE143     -0.0203
    187  CD1       49.1270   78.3620   30.7520 C.ar  143  PHE143     -0.0042
    188  CD2       50.9030   79.2020   32.0960 C.ar  143  PHE143     -0.0042
    189  CE1       49.6690   78.9830   29.6420 C.ar  143  PHE143     -0.0003
    190  CE2       51.4530   79.8250   30.9890 C.ar  143  PHE143     -0.0003
    191  CZ        50.8370   79.7160   29.7610 C.ar  143  PHE143     -0.0000
@<TRIPOS>BOND
     1   100    99    2
     2    99    98    1
     3   101    98    1
     4   101   102    1
     5    97    98    1
     6    97    95   am
     7   144   143    1
     8   144   145    1
     9   103   102   ar
    10   103   105   ar
    11    94    95    1
    12    94    93    1
    13   102   104   ar
    14   143   140    1
    15    95    96    2
    16   136   138   ar
    17   136   134   ar
    18   145   139    1
    19   138   137   ar
    20    93    87   am
    21   105   106   ar
    22   134   133   ar
    23   104   106   ar
    24   137   135   ar
    25    12    10    1
    26    87    88    2
    27    87    86    1
    28   140   139    1
    29   140   141    1
    30   151   150    1
    31   139   130   am
    32    86    85    1
    33    86    89    1
    34   133   135   ar
    35   133   132    1
    36   141   142    2
    37   141   146   am
    38    10     9    1
    39    83    81   ar
    40    83    84   ar
    41   130   129    1
    42   130   131    2
    43   129   132    1
    44   129   128    1
    45   146   147    1
    46    81    80   ar
    47    92    90    1
    48   150   147    1
    49   150   152    1
    50   115   114    1
    51    39    38    2
    52    84    82   ar
    53    89    90    1
    54   147   148    1
    55     9    11    1
    56     9     6    1
    57    80    82   ar
    58    80    79    1
    59    90    91    1
    60    78    77    2
    61    32    34   ar
    62    32    31   ar
    63     2     3    1
    64     2     1    1
    65   120   117    1
    66     5     3   am
    67     5     6    1
    68    38    37    1
    69   107   108    1
    70    79    76    1
    71    30    31    1
    72    30    27    1
    73   114   113    1
    74     3     4    2
    75    76    77    1
    76    76    75    1
    77    34    35   ar
    78     6     7    1
    79    64    65   ar
    80    64    62   ar
    81    31    33   ar
    82    65    63   ar
    83   148   149    2
    84   148   153   am
    85   112   113    1
    86   112   111    1
    87    36    37    1
    88    36    28   am
    89   116   117    1
    90   116   109   am
    91    35    33   ar
    92   117   118    1
    93    37    40    1
    94   111   108    1
    95    27    28    1
    96    27    26    1
    97   108   109    1
    98    24    23    2
    99   153   154    1
   100   119   118    2
   101    62    61   ar
   102    28    29    2
   103     7     8    2
   104     7    13   am
   105    63    61   ar
   106   109   110    2
   107   118   121   am
   108   123   124    2
   109   123   122    1
   110    73    72   ar
   111    23    26   am
   112    23    22    1
   113    13    14    1
   114    61    60    1
   115   121   122    1
   116    74    72   ar
   117    59    58    2
   118   154   155    1
   119   154   157    1
   120   156   155    2
   121    72    71    1
   122    69    68    2
   123   122   125    1
   124    21    22    1
   125    21    15   am
   126   155   165   am
   127   157   158    1
   128    22    25    1
   129    58    57    1
   130    58    66   am
   131    14    15    1
   132    14    17    1
   133    60    57    1
   134    67    68    1
   135    67    66    1
   136    67    70    1
   137   126   125    1
   138    18    17    1
   139    18    19    1
   140    18    20    1
   141   171   172    1
   142   171   170    1
   143   173   172    1
   144    15    16    2
   145    57    56    1
   146   169   166    1
   147   169   170    1
   148   165   166    1
   149   125   127    1
   150    71    70    1
   151   158   159   ar
   152   158   160   ar
   153   166   167    1
   154   159   161   ar
   155   160   162   ar
   156    52    51    2
   157   167   168    2
   158    55    53    1
   159   161   163   ar
   160   162   163   ar
   161    51    50    1
   162    44    43    2
   163    50    53    1
   164    50    49    1
   165   163   164    1
   166    53    54    1
   167   189   191   ar
   168   189   187   ar
   169   191   190   ar
   170   179   178    1
   171    43    49   am
   172    43    42    1
   173   187   186   ar
   174   190   188   ar
   175    45    42    1
   176    45    46    1
   177    42    41    1
   178   178   180    1
   179   178   175    1
   180   174   175    1
   181    48    46    1
   182    47    46    1
   183   186   188   ar
   184   186   185    1
   185   175   176    1
   186   183   182    1
   187   183   184    2
   188   185   182    1
   189   182   181    1
   190   176   177    2
