@<TRIPOS>MOLECULE
tmp/1rp8A01.pdb
 108 108 0 0 0
SMALL
GASTEIGER

@<TRIPOS>ATOM
      1  N         44.6030   16.0500   -5.4260 N.3   375  LYS375     -0.1245
      2  CA        45.9080   15.6620   -4.9300 C.3   375  LYS375      0.1561
      3  C         46.4060   16.6800   -3.9110 C.2   375  LYS375      0.2260
      4  O         46.2040   17.8790   -4.0800 O.2   375  LYS375     -0.2867
      5  CB        46.9170   15.6190   -6.0860 C.3   375  LYS375      0.0271
      6  CG        48.3780   15.3780   -5.6800 C.3   375  LYS375      0.0035
      7  CD        49.1530   16.6640   -5.4150 C.3   375  LYS375      0.0206
      8  CE        50.6300   16.3540   -5.1330 C.3   375  LYS375      0.1093
      9  NZ        51.4450   17.5800   -4.9320 N.3   375  LYS375     -0.1314
     10  N         55.7900   16.7780   -6.3060 N.3   380  TYR380     -0.1227
     11  CA        55.2960   17.5450   -7.4450 C.3   380  TYR380      0.1736
     12  C         54.5850   16.7550   -8.5370 C.2   380  TYR380      0.2595
     13  O         53.4540   17.0670   -8.8980 O.2   380  TYR380     -0.2718
     14  CB        56.4180   18.3880   -8.0720 C.3   380  TYR380      0.0548
     15  CG        55.8900   19.2960   -9.1690 C.ar  380  TYR380     -0.0200
     16  CD1       55.0250   20.3540   -8.8670 C.ar  380  TYR380     -0.0009
     17  CD2       56.1360   19.0140  -10.5160 C.ar  380  TYR380     -0.0009
     18  CE1       54.3960   21.1010   -9.8780 C.ar  380  TYR380      0.0417
     19  CE2       55.5110   19.7590  -11.5430 C.ar  380  TYR380      0.0417
     20  CZ        54.6400   20.7920  -11.2150 C.ar  380  TYR380      0.1957
     21  OH        53.9700   21.4770  -12.2070 O.3   380  TYR380     -0.2866
     22  N         55.2370   15.7180   -9.0440 N.am  381  ASP381     -0.1960
     23  CA        54.6680   14.9380  -10.1310 C.3   381  ASP381      0.1840
     24  C         53.8490   13.6990   -9.7680 C.2   381  ASP381      0.2622
     25  O         54.3580   12.7500   -9.1780 O.2   381  ASP381     -0.2715
     26  CB        55.7790   14.5630  -11.1250 C.3   381  ASP381      0.1450
     27  CG        55.2450   13.8960  -12.3760 C.2   381  ASP381      0.3671
     28  OD1       54.1950   14.3340  -12.8860 O.co2 381  ASP381     -0.2456
     29  OD2       55.8740   12.9330  -12.8520 O.co2 381  ASP381     -0.2456
     30  N         52.5680   13.7360  -10.1210 N.am  382  VAL382     -0.1963
     31  CA        51.6490   12.6190   -9.9130 C.3   382  VAL382      0.1727
     32  C         50.9710   12.3470  -11.2680 C.2   382  VAL382      0.2616
     33  O         49.9330   11.6940  -11.3420 O.2   382  VAL382     -0.2715
     34  CB        50.5670   12.9220   -8.8250 C.3   382  VAL382      0.0290
     35  CG1       51.2030   12.9370   -7.4480 C.3   382  VAL382      0.0023
     36  CG2       49.8610   14.2550   -9.1050 C.3   382  VAL382      0.0023
     37  N         51.5950   12.8380  -12.3390 N.am  383  GLY383     -0.1955
     38  CA        51.0440   12.6830  -13.6800 C.3   383  GLY383      0.1869
     39  C         50.6300   11.2810  -14.0790 C.2   383  GLY383      0.2309
     40  O         49.5390   11.0680  -14.6280 O.2   383  GLY383     -0.2863
     41  N         43.7610   19.7530  -15.3350 N.3   392  THR392     -0.1218
     42  CA        43.8090   20.6330  -14.1650 C.3   392  THR392      0.1862
     43  C         42.7910   21.7930  -14.2290 C.2   392  THR392      0.2287
     44  O         42.5150   22.3380  -15.3050 O.2   392  THR392     -0.2866
     45  CB        45.2320   21.2190  -13.9750 C.3   392  THR392      0.1770
     46  OG1       46.2030   20.1660  -14.0120 O.3   392  THR392     -0.2211
     47  CG2       45.3430   21.9240  -12.6340 C.3   392  THR392      0.0375
     48  N         44.4800   24.9200   -8.5230 N.3   395  HIS395     -0.1226
     49  CA        45.7310   24.4680   -7.9280 C.3   395  HIS395      0.1752
     50  C         46.3820   25.5340   -7.0600 C.2   395  HIS395      0.2597
     51  O         46.0250   26.7130   -7.1290 O.2   395  HIS395     -0.2718
     52  CB        46.7050   23.9940   -9.0100 C.3   395  HIS395      0.0759
     53  CG        47.0790   25.0580   -9.9900 C.ar  395  HIS395      0.0818
     54  ND1       48.0910   25.9620   -9.7540 N.ar  395  HIS395     -0.2268
     55  CD2       46.5680   25.3710  -11.2030 C.ar  395  HIS395      0.1154
     56  CE1       48.1880   26.7890  -10.7800 C.ar  395  HIS395      0.1986
     57  NE2       47.2740   26.4510  -11.6720 N.ar  395  HIS395     -0.2212
     58  N         47.3220   25.0990   -6.2330 N.am  396  GLY396     -0.1942
     59  CA        48.0280   25.9990   -5.3420 C.3   396  GLY396      0.2014
     60  C         49.1550   25.2520   -4.6560 C.2   396  GLY396      0.2639
     61  O         49.5870   24.2100   -5.1590 O.2   396  GLY396     -0.2714
     62  N         49.6010   25.7420   -3.4980 N.am  397  ASN397     -0.1958
     63  CA        50.7030   25.1140   -2.7690 C.3   397  ASN397      0.1819
     64  C         50.4160   23.7040   -2.2810 C.2   397  ASN397      0.2621
     65  O         49.6820   23.4920   -1.3020 O.2   397  ASN397     -0.2715
     66  CB        51.1720   25.9880   -1.6040 C.3   397  ASN397      0.1195
     67  CG        51.9590   27.2090   -2.0630 C.2   397  ASN397      0.2630
     68  OD1       52.4590   27.9750   -1.2400 O.2   397  ASN397     -0.2716
     69  ND2       52.0720   27.3960   -3.3750 N.am  397  ASN397     -0.0877
     70  N         51.0240   22.7480   -2.9750 N.am  398  ASP398     -0.1957
     71  CA        50.9020   21.3310   -2.6710 C.3   398  ASP398      0.1840
     72  C         49.5070   20.7270   -2.8350 C.2   398  ASP398      0.2622
     73  O         49.1580   19.7670   -2.1380 O.2   398  ASP398     -0.2715
     74  CB        51.4710   21.0260   -1.2750 C.3   398  ASP398      0.1450
     75  CG        52.9970   21.1620   -1.2100 C.2   398  ASP398      0.3671
     76  OD1       53.6400   21.4010   -2.2580 O.co2 398  ASP398     -0.2456
     77  OD2       53.5580   21.0070   -0.0970 O.co2 398  ASP398     -0.2456
     78  N         48.7180   21.2870   -3.7550 N.am  399  TYR399     -0.1960
     79  CA        47.3790   20.7810   -4.0500 C.3   399  TYR399      0.1771
     80  C         46.9720   21.1340   -5.4800 C.2   399  TYR399      0.2619
     81  O         47.4290   22.1270   -6.0430 O.2   399  TYR399     -0.2715
     82  CB        46.3210   21.2900   -3.0460 C.3   399  TYR399      0.0574
     83  CG        45.7220   22.6620   -3.3270 C.ar  399  TYR399     -0.0198
     84  CD1       44.6510   22.8140   -4.2180 C.ar  399  TYR399     -0.0009
     85  CD2       46.2420   23.8070   -2.7270 C.ar  399  TYR399     -0.0009
     86  CE1       44.1210   24.0780   -4.5100 C.ar  399  TYR399      0.0417
     87  CE2       45.7240   25.0690   -3.0060 C.ar  399  TYR399      0.0417
     88  CZ        44.6670   25.2050   -3.8990 C.ar  399  TYR399      0.1957
     89  OH        44.1640   26.4610   -4.1920 O.3   399  TYR399     -0.2866
     90  N         46.1280   20.3010   -6.0730 N.am  400  ALA400     -0.1977
     91  CA        45.6400   20.5450   -7.4220 C.3   400  ALA400      0.1597
     92  C         44.3950   19.7120   -7.6200 C.2   400  ALA400      0.2287
     93  O         44.2230   18.6760   -6.9680 O.2   400  ALA400     -0.2864
     94  CB        46.7110   20.1770   -8.4590 C.3   400  ALA400      0.0319
     95  N         41.5830   18.2250  -10.7790 N.3   402  TRP402     -0.1241
     96  CA        41.3390   17.9570  -12.2030 C.3   402  TRP402      0.1605
     97  C         39.8600   17.6650  -12.3750 C.2   402  TRP402      0.2264
     98  O         39.2220   17.1080  -11.4750 O.2   402  TRP402     -0.2867
     99  CB        42.0960   16.7050  -12.7030 C.3   402  TRP402      0.0550
    100  CG        43.6120   16.7560  -12.7450 C.ar  402  TRP402      0.0003
    101  CD1       44.3960   16.7820  -13.8670 C.ar  402  TRP402      0.0946
    102  CD2       44.5140   16.6860  -11.6320 C.ar  402  TRP402      0.0152
    103  NE1       45.7280   16.7210  -13.5210 N.ar  402  TRP402     -0.2442
    104  CE2       45.8290   16.6640  -12.1550 C.ar  402  TRP402      0.0810
    105  CE3       44.3420   16.6360  -10.2390 C.ar  402  TRP402      0.0012
    106  CZ2       46.9710   16.5950  -11.3330 C.ar  402  TRP402      0.0191
    107  CZ3       45.4870   16.5690   -9.4190 C.ar  402  TRP402      0.0001
    108  CH2       46.7790   16.5490   -9.9740 C.ar  402  TRP402      0.0015
@<TRIPOS>BOND
     1    41    42    1
     2    44    43    2
     3    40    39    2
     4    43    42    1
     5    42    45    1
     6    39    38    1
     7    46    45    1
     8    45    47    1
     9   101   103   ar
    10   101   100   ar
    11    38    37    1
    12   103   104   ar
    13    28    27   ar
    14    29    27   ar
    15   100    99    1
    16   100   102   ar
    17    99    96    1
    18    27    26    1
    19    97    96    1
    20    97    98    2
    21    37    32   am
    22    21    20    1
    23    96    95    1
    24   104   102   ar
    25   104   106   ar
    26    57    55   ar
    27    57    56   ar
    28   102   105   ar
    29    19    20   ar
    30    19    17   ar
    31    33    32    2
    32   106   108   ar
    33    32    31    1
    34    20    18   ar
    35    55    53   ar
    36    26    23    1
    37    56    54   ar
    38    17    15   ar
    39   105   107   ar
    40    23    24    1
    41    23    22    1
    42    30    31    1
    43    30    24   am
    44    53    54   ar
    45    53    52    1
    46   108   107   ar
    47    31    34    1
    48    18    16   ar
    49    24    25    2
    50    15    16   ar
    51    15    14    1
    52    36    34    1
    53    22    12   am
    54    52    49    1
    55    13    12    2
    56    34    35    1
    57    12    11    1
    58    48    49    1
    59    94    91    1
    60    14    11    1
    61    49    50    1
    62    92    91    1
    63    92    93    2
    64    11    10    1
    65    91    90    1
    66    51    50    2
    67    50    58   am
    68    58    59    1
    69     5     6    1
    70     5     2    1
    71    90    80   am
    72    81    80    2
    73     6     7    1
    74    80    79    1
    75     1     2    1
    76     7     8    1
    77    59    60    1
    78    61    60    2
    79     8     9    1
    80     2     3    1
    81    60    62   am
    82    86    84   ar
    83    86    88   ar
    84    84    83   ar
    85    89    88    1
    86     4     3    2
    87    79    78    1
    88    79    82    1
    89    88    87   ar
    90    78    72   am
    91    62    63    1
    92    69    67   am
    93    83    82    1
    94    83    85   ar
    95    87    85   ar
    96    70    71    1
    97    70    64   am
    98    72    71    1
    99    72    73    2
   100    63    64    1
   101    63    66    1
   102    71    74    1
   103    64    65    2
   104    76    75   ar
   105    67    66    1
   106    67    68    2
   107    74    75    1
   108    75    77   ar
