@<TRIPOS>MOLECULE
tmp/1rp8A02.pdb
 85 83 0 0 0
SMALL
GASTEIGER

@<TRIPOS>ATOM
      1  N         39.9530    3.5250   14.5400 N.3   223  ASP223     -0.1239
      2  CA        38.6150    2.9280   14.5460 C.3   223  ASP223      0.1674
      3  C         37.8380    3.0980   15.8530 C.2   223  ASP223      0.2266
      4  O         36.6340    3.3090   15.8080 O.2   223  ASP223     -0.2867
      5  CB        38.6490    1.4390   14.1560 C.3   223  ASP223      0.1410
      6  CG        38.8910    1.2210   12.6570 C.2   223  ASP223      0.3668
      7  OD1       39.1200    2.2210   11.9380 O.co2 223  ASP223     -0.2456
      8  OD2       38.8580    0.0580   12.1970 O.co2 223  ASP223     -0.2456
      9  N         34.3430    5.0400   16.1430 N.3   227  GLN227     -0.1245
     10  CA        33.2630    4.1730   16.6010 C.3   227  GLN227      0.1566
     11  C         32.4660    4.8880   17.7080 C.2   227  GLN227      0.2260
     12  O         31.2400    4.8110   17.7520 O.2   227  GLN227     -0.2867
     13  CB        33.8110    2.8460   17.1330 C.3   227  GLN227      0.0367
     14  CG        32.7270    1.8050   17.3970 C.3   227  GLN227      0.0905
     15  CD        32.0480    1.3480   16.1210 C.2   227  GLN227      0.2608
     16  OE1       30.8530    1.6080   15.8800 O.2   227  GLN227     -0.2717
     17  NE2       32.8000    0.6530   15.2960 N.am  227  GLN227     -0.0878
     18  N         30.2000    7.2940   15.9050 N.3   230  VAL230     -0.1245
     19  CA        29.1460    6.5960   15.1900 C.3   230  VAL230      0.1561
     20  C         28.1240    6.0410   16.2050 C.2   230  VAL230      0.2260
     21  O         26.9060    6.0660   15.9500 O.2   230  VAL230     -0.2867
     22  CB        29.7370    5.4720   14.3020 C.3   230  VAL230      0.0252
     23  CG1       28.6480    4.5340   13.8370 C.3   230  VAL230      0.0019
     24  CG2       30.4490    6.0900   13.0900 C.3   230  VAL230      0.0019
     25  N         24.0130    6.4900   16.2530 N.3   234  ASP234     -0.1239
     26  CA        23.0890    5.3480   16.3210 C.3   234  ASP234      0.1674
     27  C         22.0700    5.5330   17.4660 C.2   234  ASP234      0.2266
     28  O         20.8540    5.3520   17.2740 O.2   234  ASP234     -0.2867
     29  CB        23.8470    4.0290   16.5260 C.3   234  ASP234      0.1410
     30  CG        24.4390    3.4690   15.2280 C.2   234  ASP234      0.3668
     31  OD1       23.8200    3.6450   14.1590 O.co2 234  ASP234     -0.2456
     32  OD2       25.5180    2.8400   15.2950 O.co2 234  ASP234     -0.2456
     33  N         19.9820    7.4720   14.5180 N.3   238  GLY238     -0.1210
     34  CA        20.6300    7.1250   13.2670 C.3   238  GLY238      0.1956
     35  C         20.1080    7.8540   12.0490 C.2   238  GLY238      0.2611
     36  O         19.9640    9.0690   12.0580 O.2   238  GLY238     -0.2717
     37  N         19.8020    7.0970   11.0030 N.am  239  ALA239     -0.1979
     38  CA        19.3030    7.6640    9.7550 C.3   239  ALA239      0.1597
     39  C         17.9430    8.3410    9.8890 C.2   239  ALA239      0.2287
     40  O         17.5670    9.1640    9.0540 O.2   239  ALA239     -0.2864
     41  CB        19.2520    6.5950    8.6830 C.3   239  ALA239      0.0319
     42  N         38.9230    2.7770    2.6730 N.3   271  LYS271     -0.1245
     43  CA        38.0120    3.8960    2.9270 C.3   271  LYS271      0.1561
     44  C         38.7300    5.0320    3.6540 C.2   271  LYS271      0.2260
     45  O         39.8710    4.8680    4.0620 O.2   271  LYS271     -0.2867
     46  CB        36.8200    3.4150    3.7530 C.3   271  LYS271      0.0271
     47  CG        36.0850    2.2400    3.1130 C.3   271  LYS271      0.0035
     48  CD        34.9220    1.7550    3.9460 C.3   271  LYS271      0.0206
     49  CE        34.1810    0.6160    3.2330 C.3   271  LYS271      0.1093
     50  NZ        33.0230    0.1460    4.0410 N.3   271  LYS271     -0.1314
     51  N         32.9690    5.8760    7.2600 N.3   278  TRP278     -0.1227
     52  CA        31.9500    4.9610    7.7430 C.3   278  TRP278      0.1737
     53  C         30.5180    5.4370    7.5540 C.2   278  TRP278      0.2595
     54  O         29.6730    4.6590    7.1050 O.2   278  TRP278     -0.2718
     55  CB        32.1960    4.5960    9.2090 C.3   278  TRP278      0.0564
     56  CG        33.2280    3.5350    9.3820 C.ar  278  TRP278      0.0003
     57  CD1       33.8980    2.8790    8.3900 C.ar  278  TRP278      0.0946
     58  CD2       33.7350    3.0160   10.6210 C.ar  278  TRP278      0.0152
     59  NE1       34.7990    1.9950    8.9270 N.ar  278  TRP278     -0.2442
     60  CE2       34.7230    2.0530   10.2950 C.ar  278  TRP278      0.0810
     61  CE3       33.4530    3.2670   11.9740 C.ar  278  TRP278      0.0012
     62  CZ2       35.4390    1.3410   11.2760 C.ar  278  TRP278      0.0191
     63  CZ3       34.1640    2.5600   12.9520 C.ar  278  TRP278      0.0001
     64  CH2       35.1460    1.6070   12.5930 C.ar  278  TRP278      0.0015
     65  N         30.2490    6.7040    7.8830 N.am  279  TRP279     -0.1963
     66  CA        28.9050    7.2660    7.7590 C.3   279  TRP279      0.1756
     67  C         29.0530    8.7190    7.2810 C.2   279  TRP279      0.2461
     68  O         28.8040    9.6560    8.0390 O.2   279  TRP279     -0.2730
     69  CB        28.2270    7.2240    9.1340 C.3   279  TRP279      0.0590
     70  CG        26.7120    7.1580    9.0910 C.ar  279  TRP279      0.0006
     71  CD1       25.8990    7.4650    8.0360 C.ar  279  TRP279      0.0946
     72  CD2       25.8480    6.7010   10.1410 C.ar  279  TRP279      0.0152
     73  NE1       24.5860    7.2100    8.3580 N.ar  279  TRP279     -0.2442
     74  CE2       24.5280    6.7430    9.6450 C.ar  279  TRP279      0.0810
     75  CE3       26.0660    6.2530   11.4520 C.ar  279  TRP279      0.0012
     76  CZ2       23.4250    6.3510   10.4130 C.ar  279  TRP279      0.0191
     77  CZ3       24.9660    5.8620   12.2170 C.ar  279  TRP279      0.0001
     78  CH2       23.6680    5.9150   11.6920 C.ar  279  TRP279      0.0015
     79  N         29.4180    8.9160    5.9970 N.am  280  PRO280     -0.2727
     80  CA        29.6130   10.2530    5.4230 C.3   280  PRO280      0.1402
     81  C         28.4790   11.2530    5.5340 C.2   280  PRO280      0.2269
     82  O         28.7300   12.4340    5.7380 O.2   280  PRO280     -0.2865
     83  CB        30.0540    9.9600    3.9810 C.3   280  PRO280      0.0296
     84  CG        29.5240    8.5830    3.7060 C.3   280  PRO280      0.0237
     85  CD        29.7240    7.8650    5.0080 C.3   280  PRO280      0.0939
@<TRIPOS>BOND
     1    42    43    1
     2    43    44    1
     3    43    46    1
     4    47    46    1
     5    47    48    1
     6    49    48    1
     7    49    50    1
     8    44    45    2
     9    84    83    1
    10    84    85    1
    11    83    80    1
    12    85    79    1
    13    80    81    1
    14    80    79    1
    15    81    82    2
    16    79    67   am
    17    54    53    2
    18    51    52    1
    19    67    66    1
    20    67    68    2
    21    53    52    1
    22    53    65   am
    23    52    55    1
    24    66    65    1
    25    66    69    1
    26    71    73   ar
    27    71    70   ar
    28    73    74   ar
    29    57    59   ar
    30    57    56   ar
    31    41    38    1
    32    59    60   ar
    33    40    39    2
    34    70    69    1
    35    70    72   ar
    36    55    56    1
    37    56    58   ar
    38    74    72   ar
    39    74    76   ar
    40    38    39    1
    41    38    37    1
    42    72    75   ar
    43    60    58   ar
    44    60    62   ar
    45    76    78   ar
    46    58    61   ar
    47    37    35   am
    48    62    64   ar
    49    75    77   ar
    50    78    77   ar
    51     7     6   ar
    52    61    63   ar
    53    35    36    2
    54    35    34    1
    55     8     6   ar
    56    64    63   ar
    57     6     5    1
    58    24    22    1
    59    34    33    1
    60    23    22    1
    61     5     2    1
    62    31    30   ar
    63    22    19    1
    64     1     2    1
    65     2     3    1
    66    19    18    1
    67    19    20    1
    68    30    32   ar
    69    30    29    1
    70    17    15   am
    71     4     3    2
    72    16    15    2
    73    21    20    2
    74    15    14    1
    75     9    10    1
    76    25    26    1
    77    26    29    1
    78    26    27    1
    79    10    13    1
    80    10    11    1
    81    13    14    1
    82    28    27    2
    83    11    12    2
