@<TRIPOS>MOLECULE
tmp/1rp9A01.pdb
 187 179 0 0 0
SMALL
GASTEIGER

@<TRIPOS>ATOM
      1  N         36.8520   32.6230   17.9240 N.3    10  TRP10      -0.1241
      2  CA        36.9180   32.8880   19.3430 C.3    10  TRP10       0.1605
      3  C         37.0320   34.3640   19.7640 C.2    10  TRP10       0.2264
      4  O         36.8460   34.6890   20.9260 O.2    10  TRP10      -0.2867
      5  CB        38.0640   32.1070   19.9250 C.3    10  TRP10       0.0550
      6  CG        38.0540   32.0370   21.4050 C.ar   10  TRP10       0.0003
      7  CD1       39.0050   32.5350   22.2490 C.ar   10  TRP10       0.0946
      8  CD2       37.1070   31.3380   22.2290 C.ar   10  TRP10       0.0152
      9  NE1       38.7200   32.1800   23.5360 N.ar   10  TRP10      -0.2442
     10  CE2       37.5590   31.4480   23.5600 C.ar   10  TRP10       0.0810
     11  CE3       35.9210   30.6360   21.9690 C.ar   10  TRP10       0.0012
     12  CZ2       36.8710   30.8760   24.6390 C.ar   10  TRP10       0.0191
     13  CZ3       35.2280   30.0660   23.0490 C.ar   10  TRP10       0.0001
     14  CH2       35.7110   30.1920   24.3650 C.ar   10  TRP10       0.0015
     15  N         27.4770   33.7720   31.0750 N.3    47  VAL47      -0.1231
     16  CA        28.3710   34.3660   32.0520 C.3    47  VAL47       0.1692
     17  C         29.7460   34.6040   31.3880 C.2    47  VAL47       0.2592
     18  O         30.4510   35.5560   31.7130 O.2    47  VAL47      -0.2718
     19  CB        28.4660   33.4620   33.2990 C.3    47  VAL47       0.0266
     20  CG1       29.4400   34.0650   34.3260 C.3    47  VAL47       0.0020
     21  CG2       27.0820   33.3500   33.9270 C.3    47  VAL47       0.0020
     22  N         30.0960   33.7420   30.4380 N.am   48  SER48      -0.1952
     23  CA        31.3500   33.8500   29.7090 C.3    48  SER48       0.1924
     24  C         31.0330   34.6620   28.4620 C.2    48  SER48       0.2314
     25  O         29.9260   34.5650   27.9130 O.2    48  SER48      -0.2863
     26  CB        31.8600   32.4580   29.3210 C.3    48  SER48       0.2116
     27  OG        30.9470   31.8090   28.4670 O.3    48  SER48      -0.2180
     28  N         32.0120   34.4370   25.3160 N.3    50  GLU50      -0.1245
     29  CA        31.8920   33.7030   24.0490 C.3    50  GLU50       0.1567
     30  C         30.5800   32.9730   23.9070 C.2    50  GLU50       0.2260
     31  O         30.2220   32.4960   22.8200 O.2    50  GLU50      -0.2867
     32  CB        33.0670   32.7290   23.8840 C.3    50  GLU50       0.0388
     33  CG        34.4680   33.3610   23.9240 C.3    50  GLU50       0.1160
     34  CD        34.9780   33.5640   25.3410 C.2    50  GLU50       0.3649
     35  OE1       34.3930   32.9960   26.2960 O.co2  50  GLU50      -0.2457
     36  OE2       35.9800   34.2810   25.4950 O.co2  50  GLU50      -0.2457
     37  N         29.5190   30.1920   25.9160 N.3    52  TYR52      -0.1227
     38  CA        29.4340   28.8050   26.3370 C.3    52  TYR52       0.1736
     39  C         29.1270   28.5610   27.8140 C.2    52  TYR52       0.2595
     40  O         29.2740   27.4470   28.3060 O.2    52  TYR52      -0.2718
     41  CB        30.6870   28.0590   25.8760 C.3    52  TYR52       0.0548
     42  CG        30.7300   27.9850   24.3560 C.ar   52  TYR52      -0.0200
     43  CD1       29.9600   27.0340   23.6500 C.ar   52  TYR52      -0.0009
     44  CD2       31.4740   28.9180   23.6180 C.ar   52  TYR52      -0.0009
     45  CE1       29.9250   27.0290   22.2440 C.ar   52  TYR52       0.0417
     46  CE2       31.4560   28.9180   22.2410 C.ar   52  TYR52       0.0417
     47  CZ        30.6750   27.9790   21.5470 C.ar   52  TYR52       0.1957
     48  OH        30.6190   28.0630   20.1670 O.3    52  TYR52      -0.2866
     49  N         28.6920   29.6110   28.5120 N.am   53  MET53      -0.1979
     50  CA        28.2630   29.4570   29.9010 C.3    53  MET53       0.1605
     51  C         26.8790   30.1670   29.9860 C.2    53  MET53       0.2287
     52  O         26.7120   31.1440   30.7090 O.2    53  MET53      -0.2864
     53  CB        29.3030   30.0510   30.8670 C.3    53  MET53       0.0413
     54  CG        30.6430   29.2950   30.8530 C.3    53  MET53       0.0598
     55  SD        31.7240   29.7070   32.2420 S.3    53  MET53      -0.1393
     56  CE        30.6910   28.9750   33.6190 C.3    53  MET53       0.0692
     57  N         23.8300   25.0540   23.5210 N.3    90  VAL90      -0.1245
     58  CA        24.6610   24.6710   24.6780 C.3    90  VAL90       0.1561
     59  C         23.7420   24.2470   25.8210 C.2    90  VAL90       0.2260
     60  O         23.2870   25.0830   26.6030 O.2    90  VAL90      -0.2867
     61  CB        25.5370   25.8570   25.1560 C.3    90  VAL90       0.0252
     62  CG1       26.3840   25.4460   26.3700 C.3    90  VAL90       0.0019
     63  CG2       26.4710   26.3060   24.0270 C.3    90  VAL90       0.0019
     64  N         25.2600   22.0880   30.3890 N.3    93  HIS93      -0.1241
     65  CA        25.2910   22.8020   31.6540 C.3    93  HIS93       0.1621
     66  C         24.6080   24.1560   31.5260 C.2    93  HIS93       0.2264
     67  O         24.2680   24.5850   30.4280 O.2    93  HIS93      -0.2867
     68  CB        26.7420   22.9920   32.0670 C.3    93  HIS93       0.0745
     69  CG        27.5970   23.5920   30.9960 C.ar   93  HIS93       0.0817
     70  ND1       28.3850   22.8300   30.1560 N.ar   93  HIS93      -0.2268
     71  CD2       27.8180   24.8830   30.6500 C.ar   93  HIS93       0.1154
     72  CE1       29.0640   23.6290   29.3500 C.ar   93  HIS93       0.1986
     73  NE2       28.7370   24.8770   29.6300 N.ar   93  HIS93      -0.2212
     74  N         24.2880   28.2120   33.8900 N.3    95  CYS95      -0.1235
     75  CA        24.6250   29.0120   35.0620 C.3    95  CYS95       0.1677
     76  C         23.3530   29.6440   35.6420 C.2    95  CYS95       0.2270
     77  O         22.5220   30.1910   34.9110 O.2    95  CYS95      -0.2867
     78  CB        25.6440   30.1070   34.7060 C.3    95  CYS95       0.0956
     79  SG        27.2980   29.4690   34.3580 S.3    95  CYS95      -0.0801
     80  N         28.9220   19.9820   43.5110 N.3   130  LYS130     -0.1231
     81  CA        29.4110   21.3440   43.6390 C.3   130  LYS130      0.1693
     82  C         28.1980   22.3020   43.5730 C.2   130  LYS130      0.2592
     83  O         28.2690   23.4530   44.0270 O.2   130  LYS130     -0.2718
     84  CB        30.3950   21.6330   42.4950 C.3   130  LYS130      0.0285
     85  CG        31.0280   23.0050   42.5380 C.3   130  LYS130      0.0035
     86  CD        32.2170   23.1420   41.5660 C.3   130  LYS130      0.0206
     87  CE        32.9010   24.5120   41.7370 C.3   130  LYS130      0.1093
     88  NZ        34.0110   24.8280   40.7740 N.3   130  LYS130     -0.1314
     89  N         27.0720   21.8150   43.0540 N.am  131  TYR131     -0.1976
     90  CA        25.8940   22.6720   42.9110 C.3   131  TYR131      0.1639
     91  C         24.5310   22.0440   43.2460 C.2   131  TYR131      0.2290
     92  O         23.5410   22.7650   43.5080 O.2   131  TYR131     -0.2864
     93  CB        25.8130   23.1610   41.4660 C.3   131  TYR131      0.0560
     94  CG        26.9970   23.9730   40.9800 C.ar  131  TYR131     -0.0198
     95  CD1       27.1500   25.3080   41.3580 C.ar  131  TYR131     -0.0009
     96  CD2       27.9290   23.4210   40.0830 C.ar  131  TYR131     -0.0009
     97  CE1       28.1980   26.0930   40.8510 C.ar  131  TYR131      0.0417
     98  CE2       28.9680   24.1820   39.5700 C.ar  131  TYR131      0.0417
     99  CZ        29.1010   25.5220   39.9550 C.ar  131  TYR131      0.1957
    100  OH        30.1320   26.2890   39.4370 O.3   131  TYR131     -0.2866
    101  N         30.6860   19.1010   33.1700 N.3   144  PHE144     -0.1241
    102  CA        31.4020   20.3160   32.7910 C.3   144  PHE144      0.1605
    103  C         31.7360   20.9160   34.1650 C.2   144  PHE144      0.2264
    104  O         30.8500   21.3550   34.9000 O.2   144  PHE144     -0.2867
    105  CB        30.5340   21.2870   31.9970 C.3   144  PHE144      0.0534
    106  CG        31.2300   22.5770   31.6820 C.ar  144  PHE144     -0.0203
    107  CD1       32.2820   22.6020   30.7840 C.ar  144  PHE144     -0.0042
    108  CD2       30.8400   23.7680   32.3100 C.ar  144  PHE144     -0.0042
    109  CE1       32.9630   23.8020   30.4930 C.ar  144  PHE144     -0.0003
    110  CE2       31.4990   24.9830   32.0400 C.ar  144  PHE144     -0.0003
    111  CZ        32.5780   25.0020   31.1180 C.ar  144  PHE144     -0.0000
    112  N         33.0310   23.7840   35.3450 N.3   146  ALA146     -0.1245
    113  CA        32.8040   25.1760   35.7040 C.3   146  ALA146      0.1562
    114  C         31.3700   25.6490   35.9070 C.2   146  ALA146      0.2260
    115  O         31.1330   26.8300   36.2050 O.2   146  ALA146     -0.2867
    116  CB        33.5380   26.0960   34.6940 C.3   146  ALA146      0.0290
    117  N         23.6730   22.8740   16.3520 N.3   178  ARG178     -0.1245
    118  CA        25.0430   22.3780   16.5540 C.3   178  ARG178      0.1563
    119  C         24.9720   22.0330   18.0580 C.2   178  ARG178      0.2260
    120  O         24.7490   22.9220   18.9100 O.2   178  ARG178     -0.2867
    121  CB        26.0860   23.4830   16.2880 C.3   178  ARG178      0.0307
    122  CG        27.5660   23.0630   16.4820 C.3   178  ARG178      0.0489
    123  CD        28.0930   23.3320   17.8830 C.3   178  ARG178      0.2205
    124  NE        29.5070   22.9770   18.0190 N.pl3 178  ARG178     -0.0865
    125  CZ        30.2600   23.3040   19.0720 C.cat 178  ARG178      0.5346
    126  NH1       29.7140   23.9890   20.0680 N.pl3 178  ARG178      0.1354
    127  NH2       31.5580   22.9620   19.1250 N.pl3 178  ARG178      0.1354
    128  N         26.5480   21.4520   21.3150 N.3   180  ALA180     -0.1231
    129  CA        27.7940   21.6860   22.0350 C.3   180  ALA180      0.1694
    130  C         28.0600   20.6350   23.1040 C.2   180  ALA180      0.2592
    131  O         27.1480   20.2380   23.8380 O.2   180  ALA180     -0.2718
    132  CB        27.7450   23.0560   22.6800 C.3   180  ALA180      0.0304
    133  N         29.3060   20.1800   23.1870 N.am  181  PHE181     -0.1976
    134  CA        29.6900   19.2050   24.2060 C.3   181  PHE181      0.1639
    135  C         28.6450   18.1080   24.3480 C.2   181  PHE181      0.2290
    136  O         28.1300   17.8640   25.4440 O.2   181  PHE181     -0.2864
    137  CB        29.9260   19.9450   25.5510 C.3   181  PHE181      0.0560
    138  CG        30.5090   19.0700   26.6540 C.ar  181  PHE181     -0.0200
    139  CD1       31.4110   18.0430   26.3580 C.ar  181  PHE181     -0.0042
    140  CD2       30.1390   19.2680   27.9820 C.ar  181  PHE181     -0.0042
    141  CE1       31.9250   17.2270   27.3890 C.ar  181  PHE181     -0.0003
    142  CE2       30.6460   18.4650   29.0000 C.ar  181  PHE181     -0.0003
    143  CZ        31.5310   17.4480   28.7170 C.ar  181  PHE181     -0.0000
    144  N         28.7830   17.7790   18.5300 N.3   205  GLU205     -0.1245
    145  CA        30.1980   17.8500   18.8230 C.3   205  GLU205      0.1567
    146  C         30.4400   16.7900   19.8860 C.2   205  GLU205      0.2260
    147  O         30.1880   17.0250   21.0840 O.2   205  GLU205     -0.2867
    148  CB        30.6410   19.1870   19.4160 C.3   205  GLU205      0.0388
    149  CG        32.1220   19.1520   19.8360 C.3   205  GLU205      0.1160
    150  CD        32.4640   20.1370   20.9410 C.2   205  GLU205      0.3649
    151  OE1       31.5630   20.5170   21.7270 O.co2 205  GLU205     -0.2457
    152  OE2       33.6420   20.5300   21.0420 O.co2 205  GLU205     -0.2457
    153  N         36.6690   27.0800   16.0830 N.3   290  HIS290     -0.1226
    154  CA        37.0850   28.0770   17.0740 C.3   290  HIS290      0.1752
    155  C         37.9070   27.5130   18.2290 C.2   290  HIS290      0.2596
    156  O         38.5620   28.2700   18.9350 O.2   290  HIS290     -0.2718
    157  CB        35.8680   28.8060   17.6540 C.3   290  HIS290      0.0759
    158  CG        34.9470   27.9140   18.4320 C.ar  290  HIS290      0.0818
    159  ND1       34.1600   26.9520   17.8340 N.ar  290  HIS290     -0.2268
    160  CD2       34.7380   27.7970   19.7650 C.ar  290  HIS290      0.1154
    161  CE1       33.5090   26.2780   18.7680 C.ar  290  HIS290      0.1986
    162  NE2       33.8440   26.7700   19.9490 N.ar  290  HIS290     -0.2212
    163  N         37.8190   26.1980   18.4450 N.am  291  ASP291     -0.1974
    164  CA        38.5750   25.5290   19.5000 C.3   291  ASP291      0.1709
    165  C         39.9470   25.0340   19.0190 C.2   291  ASP291      0.2293
    166  O         40.9740   25.2810   19.6830 O.2   291  ASP291     -0.2864
    167  CB        37.8290   24.3020   20.0290 C.3   291  ASP291      0.1436
    168  CG        36.5820   24.6570   20.8200 C.2   291  ASP291      0.3671
    169  OD1       36.6070   25.6440   21.5790 O.co2 291  ASP291     -0.2456
    170  OD2       35.5820   23.9280   20.6860 O.co2 291  ASP291     -0.2456
    171  N         42.4280   30.0640   20.2930 N.3   296  GLN296     -0.1245
    172  CA        42.5220   29.0150   21.2890 C.3   296  GLN296      0.1566
    173  C         43.5750   28.0160   20.7980 C.2   296  GLN296      0.2260
    174  O         44.4050   27.5700   21.5790 O.2   296  GLN296     -0.2867
    175  CB        41.1750   28.3060   21.4880 C.3   296  GLN296      0.0367
    176  CG        40.1520   29.1270   22.2870 C.3   296  GLN296      0.0905
    177  CD        39.1030   28.2440   22.9180 C.2   296  GLN296      0.2608
    178  OE1       39.1750   27.9310   24.0940 O.2   296  GLN296     -0.2717
    179  NE2       38.1300   27.8220   22.1270 N.am  296  GLN296     -0.0878
    180  N         43.8250   24.7680   20.0270 N.3   298  MET298     -0.1245
    181  CA        44.0220   23.5370   20.8000 C.3   298  MET298      0.1570
    182  C         44.5440   22.4070   19.9280 C.2   298  MET298      0.2261
    183  O         45.0470   21.4240   20.4460 O.2   298  MET298     -0.2867
    184  CB        42.7090   23.0520   21.4160 C.3   298  MET298      0.0387
    185  CG        42.1130   23.9640   22.4530 C.3   298  MET298      0.0595
    186  SD        40.5850   23.2630   23.1590 S.3   298  MET298     -0.1393
    187  CE        40.1130   24.7270   24.0610 C.3   298  MET298      0.0692
@<TRIPOS>BOND
     1   153   154    1
     2   121   122    1
     3   121   118    1
     4   117   118    1
     5   122   123    1
     6   118   119    1
     7   154   157    1
     8   154   155    1
     9   157   158    1
    10   159   158   ar
    11   159   161   ar
    12   123   124    1
    13     1     2    1
    14   124   125    2
    15   119   120    2
    16   155   163   am
    17   155   156    2
    18   158   160   ar
    19   163   164    1
    20   144   145    1
    21   161   162   ar
    22   145   148    1
    23   145   146    1
    24   165   164    1
    25   165   166    2
    26   125   127    1
    27   125   126    1
    28     2     3    1
    29     2     5    1
    30   148   149    1
    31   164   167    1
    32     3     4    2
    33   160   162   ar
    34   149   150    1
    35   146   147    2
    36     5     6    1
    37   182   183    2
    38   182   181    1
    39   180   181    1
    40   167   168    1
    41    48    47    1
    42   171   172    1
    43   170   168   ar
    44   173   172    1
    45   173   174    2
    46   181   184    1
    47   168   169   ar
    48   150   152   ar
    49   150   151   ar
    50   172   175    1
    51   128   129    1
    52     6     8   ar
    53     6     7   ar
    54   184   185    1
    55   175   176    1
    56    47    46   ar
    57    47    45   ar
    58    11     8   ar
    59    11    13   ar
    60   129   132    1
    61   129   130    1
    62   179   177   am
    63     8    10   ar
    64    46    44   ar
    65    45    43   ar
    66     7     9   ar
    67   176   177    1
    68   185   186    1
    69    31    30    2
    70   177   178    2
    71    13    14   ar
    72   130   133   am
    73   130   131    2
    74   186   187    1
    75   133   134    1
    76    57    58    1
    77     9    10   ar
    78    10    12   ar
    79    44    42   ar
    80    43    42   ar
    81    32    33    1
    82    32    29    1
    83    30    29    1
    84    33    34    1
    85    63    61    1
    86    29    28    1
    87   134   135    1
    88   134   137    1
    89   135   136    2
    90    42    41    1
    91    14    12   ar
    92    58    61    1
    93    58    59    1
    94    61    62    1
    95    34    36   ar
    96    34    35   ar
    97   137   138    1
    98    59    60    2
    99    41    38    1
   100    37    38    1
   101    38    39    1
   102   139   138   ar
   103   139   141   ar
   104   138   140   ar
   105   141   143   ar
   106    39    40    2
   107    39    49   am
   108    25    24    2
   109   140   142   ar
   110    24    23    1
   111    27    26    1
   112    49    50    1
   113   143   142   ar
   114    26    23    1
   115    72    73   ar
   116    72    70   ar
   117    73    71   ar
   118    23    22    1
   119    50    51    1
   120    50    53    1
   121    51    52    2
   122    70    69   ar
   123    64    65    1
   124    67    66    2
   125    22    17   am
   126   109   107   ar
   127   109   111   ar
   128    71    69   ar
   129   107   106   ar
   130    54    53    1
   131    54    55    1
   132    69    68    1
   133    15    16    1
   134   111   110   ar
   135    17    18    2
   136    17    16    1
   137    66    65    1
   138    65    68    1
   139   106   105    1
   140   106   108   ar
   141   105   102    1
   142   110   108   ar
   143    16    19    1
   144    55    56    1
   145   102   101    1
   146   102   103    1
   147    19    21    1
   148    19    20    1
   149    74    75    1
   150   103   104    2
   151    79    78    1
   152   116   113    1
   153    78    75    1
   154    77    76    2
   155    75    76    1
   156   112   113    1
   157   113   114    1
   158   114   115    2
   159   100    99    1
   160    98    99   ar
   161    98    96   ar
   162    99    97   ar
   163    96    94   ar
   164    88    87    1
   165    97    95   ar
   166    94    95   ar
   167    94    93    1
   168    93    90    1
   169    86    87    1
   170    86    85    1
   171    84    85    1
   172    84    81    1
   173    90    89    1
   174    90    91    1
   175    89    82   am
   176    91    92    2
   177    80    81    1
   178    82    81    1
   179    82    83    2
