@<TRIPOS>MOLECULE
tmp/1rp9A00.pdb
 99 94 0 0 0
SMALL
GASTEIGER

@<TRIPOS>ATOM
      1  N         40.1170    3.2120   14.0430 N.3   223  ASP223     -0.1239
      2  CA        38.8020    2.6090   13.9780 C.3   223  ASP223      0.1674
      3  C         38.0020    2.7650   15.2840 C.2   223  ASP223      0.2266
      4  O         36.7910    3.0110   15.2570 O.2   223  ASP223     -0.2867
      5  CB        38.9310    1.1350   13.5820 C.3   223  ASP223      0.1410
      6  CG        39.1650    0.9540   12.0780 C.2   223  ASP223      0.3668
      7  OD1       39.2580    1.9850   11.3660 O.co2 223  ASP223     -0.2456
      8  OD2       39.2630   -0.2240   11.6030 O.co2 223  ASP223     -0.2456
      9  N         34.5040    4.5270   15.4120 N.3   227  GLN227     -0.1245
     10  CA        33.4450    3.5900   15.8530 C.3   227  GLN227      0.1566
     11  C         32.5600    4.2880   16.9250 C.2   227  GLN227      0.2260
     12  O         31.3360    4.1540   16.9150 O.2   227  GLN227     -0.2867
     13  CB        34.0420    2.3100   16.4550 C.3   227  GLN227      0.0367
     14  CG        32.9890    1.2130   16.7780 C.3   227  GLN227      0.0905
     15  CD        32.2520    0.7210   15.5400 C.2   227  GLN227      0.2608
     16  OE1       32.8550    0.1960   14.6240 O.2   227  GLN227     -0.2717
     17  NE2       30.9410    0.9040   15.5150 N.am  227  GLN227     -0.0878
     18  N         30.1610    6.5480   15.0770 N.3   230  VAL230     -0.1245
     19  CA        29.0320    5.9830   14.3770 C.3   230  VAL230      0.1561
     20  C         28.0630    5.4020   15.3940 C.2   230  VAL230      0.2260
     21  O         26.8510    5.4330   15.1550 O.2   230  VAL230     -0.2867
     22  CB        29.4040    4.8960   13.3530 C.3   230  VAL230      0.0252
     23  CG1       30.1800    5.5080   12.2120 C.3   230  VAL230      0.0019
     24  CG2       30.1880    3.8080   14.0160 C.3   230  VAL230      0.0019
     25  N         24.0690    5.8780   15.5860 N.3   234  ASP234     -0.1239
     26  CA        23.1390    4.7510   15.6390 C.3   234  ASP234      0.1674
     27  C         22.1340    4.9570   16.7870 C.2   234  ASP234      0.2266
     28  O         20.9110    4.8920   16.5990 O.2   234  ASP234     -0.2867
     29  CB        23.9060    3.4320   15.8700 C.3   234  ASP234      0.1410
     30  CG        24.5160    2.8750   14.6110 C.2   234  ASP234      0.3668
     31  OD1       23.8930    3.0140   13.5410 O.co2 234  ASP234     -0.2456
     32  OD2       25.6150    2.2890   14.6980 O.co2 234  ASP234     -0.2456
     33  N         19.9690    6.8900   13.9330 N.3   238  GLY238     -0.1210
     34  CA        20.4910    6.4550   12.6480 C.3   238  GLY238      0.1956
     35  C         20.0460    7.2790   11.4580 C.2   238  GLY238      0.2611
     36  O         19.7940    8.4950   11.5700 O.2   238  GLY238     -0.2717
     37  N         19.9360    6.6110   10.3100 N.am  239  ALA239     -0.1979
     38  CA        19.5280    7.2480    9.0660 C.3   239  ALA239      0.1597
     39  C         18.2540    8.1010    9.1730 C.2   239  ALA239      0.2287
     40  O         18.1630    9.1550    8.5420 O.2   239  ALA239     -0.2864
     41  CB        19.3610    6.1890    7.9740 C.3   239  ALA239      0.0319
     42  N         42.3600    3.4150    4.8110 N.3   267  ASP267     -0.1239
     43  CA        42.4010    2.3420    5.8010 C.3   267  ASP267      0.1674
     44  C         42.7100    1.0460    5.0380 C.2   267  ASP267      0.2266
     45  O         42.7820    1.0580    3.8190 O.2   267  ASP267     -0.2867
     46  CB        41.0710    2.2560    6.5810 C.3   267  ASP267      0.1410
     47  CG        39.8740    1.8260    5.7130 C.2   267  ASP267      0.3668
     48  OD1       40.0280    1.1100    4.6940 O.co2 267  ASP267     -0.2456
     49  OD2       38.7490    2.2040    6.0800 O.co2 267  ASP267     -0.2456
     50  N         40.9440   -1.3210    4.1500 N.3   269  GLN269     -0.1245
     51  CA        39.8460   -1.7700    3.2940 C.3   269  GLN269      0.1566
     52  C         39.7380   -0.9030    2.0520 C.2   269  GLN269      0.2260
     53  O         38.8720   -1.1280    1.2170 O.2   269  GLN269     -0.2867
     54  CB        38.5030   -1.7030    4.0360 C.3   269  GLN269      0.0367
     55  CG        38.4960   -2.4270    5.3500 C.3   269  GLN269      0.0905
     56  CD        38.9020   -3.8760    5.1960 C.2   269  GLN269      0.2608
     57  OE1       38.3520   -4.6010    4.3620 O.2   269  GLN269     -0.2717
     58  NE2       39.8730   -4.3120    6.0030 N.am  269  GLN269     -0.0878
     59  N         39.1850    2.4470    2.1570 N.3   271  LYS271     -0.1245
     60  CA        38.2430    3.5700    2.3690 C.3   271  LYS271      0.1561
     61  C         38.8890    4.7450    3.1210 C.2   271  LYS271      0.2260
     62  O         39.9850    4.5830    3.6880 O.2   271  LYS271     -0.2867
     63  CB        37.0710    3.0660    3.2100 C.3   271  LYS271      0.0271
     64  CG        36.2920    1.9190    2.5840 C.3   271  LYS271      0.0035
     65  CD        35.3910    1.2320    3.6030 C.3   271  LYS271      0.0206
     66  CE        34.3800    0.3420    2.8900 C.3   271  LYS271      0.1093
     67  NZ        33.5990   -0.4840    3.8560 N.3   271  LYS271     -0.1314
     68  N         34.6190    7.5810    5.8990 N.3   277  GLY277     -0.1210
     69  CA        34.7440    6.3110    5.2100 C.3   277  GLY277      0.1956
     70  C         33.7570    5.2370    5.6020 C.2   277  GLY277      0.2612
     71  O         33.6940    4.1980    4.9550 O.2   277  GLY277     -0.2717
     72  N         32.9870    5.4790    6.6560 N.am  278  TRP278     -0.1962
     73  CA        32.0050    4.5060    7.1130 C.3   278  TRP278      0.1771
     74  C         30.5630    4.9940    7.0260 C.2   278  TRP278      0.2619
     75  O         29.6530    4.2110    6.7960 O.2   278  TRP278     -0.2715
     76  CB        32.2950    4.1220    8.5520 C.3   278  TRP278      0.0590
     77  CG        33.4340    3.1630    8.7600 C.ar  278  TRP278      0.0006
     78  CD1       34.1650    2.5110    7.8030 C.ar  278  TRP278      0.0946
     79  CD2       33.9060    2.6900   10.0210 C.ar  278  TRP278      0.0152
     80  NE1       35.0610    1.6540    8.4030 N.ar  278  TRP278     -0.2442
     81  CE2       34.9170    1.7470    9.7640 C.ar  278  TRP278      0.0810
     82  CE3       33.5600    2.9660   11.3490 C.ar  278  TRP278      0.0012
     83  CZ2       35.5900    1.0790   10.7900 C.ar  278  TRP278      0.0191
     84  CZ3       34.2290    2.2960   12.3690 C.ar  278  TRP278      0.0001
     85  CH2       35.2290    1.3690   12.0840 C.ar  278  TRP278      0.0015
     86  N         30.3230    6.2840    7.2460 N.am  279  TRP279     -0.1974
     87  CA        28.9510    6.7870    7.1690 C.3   279  TRP279      0.1640
     88  C         29.0890    8.2350    6.7290 C.2   279  TRP279      0.2290
     89  O         28.8000    9.1390    7.4940 O.2   279  TRP279     -0.2864
     90  CB        28.3030    6.7210    8.5610 C.3   279  TRP279      0.0576
     91  CG        26.7800    6.6590    8.5570 C.ar  279  TRP279      0.0006
     92  CD1       25.9370    7.0070    7.5400 C.ar  279  TRP279      0.0946
     93  CD2       25.9360    6.1910    9.6260 C.ar  279  TRP279      0.0152
     94  NE1       24.6220    6.7800    7.9070 N.ar  279  TRP279     -0.2442
     95  CE2       24.5980    6.2810    9.1780 C.ar  279  TRP279      0.0810
     96  CE3       26.1870    5.6990   10.9140 C.ar  279  TRP279      0.0012
     97  CZ2       23.5110    5.8950    9.9720 C.ar  279  TRP279      0.0191
     98  CZ3       25.1010    5.3070   11.7040 C.ar  279  TRP279      0.0001
     99  CH2       23.7850    5.4080   11.2250 C.ar  279  TRP279      0.0015
@<TRIPOS>BOND
     1    53    52    2
     2    52    51    1
     3    59    60    1
     4    60    61    1
     5    60    63    1
     6    64    63    1
     7    64    65    1
     8    66    65    1
     9    66    67    1
    10    61    62    2
    11    51    54    1
    12    51    50    1
    13    45    44    2
    14    54    55    1
    15    57    56    2
    16    48    47   ar
    17    42    43    1
    18    71    70    2
    19    44    43    1
    20    56    55    1
    21    56    58   am
    22    69    70    1
    23    69    68    1
    24    70    72   am
    25    47    49   ar
    26    47    46    1
    27    43    46    1
    28    72    73    1
    29    88    87    1
    30    88    89    2
    31    75    74    2
    32    74    73    1
    33    74    86   am
    34    73    76    1
    35    87    86    1
    36    87    90    1
    37    92    94   ar
    38    92    91   ar
    39    78    80   ar
    40    78    77   ar
    41    94    95   ar
    42    41    38    1
    43    80    81   ar
    44    40    39    2
    45    76    77    1
    46    91    90    1
    47    91    93   ar
    48    77    79   ar
    49    38    39    1
    50    38    37    1
    51    95    93   ar
    52    95    97   ar
    53    93    96   ar
    54    81    79   ar
    55    81    83   ar
    56    97    99   ar
    57    79    82   ar
    58    37    35   am
    59    83    85   ar
    60    96    98   ar
    61    99    98   ar
    62    82    84   ar
    63     7     6   ar
    64    35    36    2
    65    35    34    1
    66     8     6   ar
    67     6     5    1
    68    85    84   ar
    69    23    22    1
    70    34    33    1
    71    22    24    1
    72    22    19    1
    73    31    30   ar
    74     5     2    1
    75     2     1    1
    76     2     3    1
    77    19    18    1
    78    19    20    1
    79    30    32   ar
    80    30    29    1
    81    16    15    2
    82    21    20    2
    83     4     3    2
    84     9    10    1
    85    17    15   am
    86    15    14    1
    87    25    26    1
    88    26    29    1
    89    26    27    1
    90    10    13    1
    91    10    11    1
    92    13    14    1
    93    28    27    2
    94    12    11    2
