@<TRIPOS>MOLECULE
tmp/1rpjA00.pdb
 124 118 0 0 0
SMALL
GASTEIGER

@<TRIPOS>ATOM
      1  N         -1.6910   11.2480    6.6630 N.3     9  LYS9       -0.1245
      2  CA        -2.3460   10.0130    7.0490 C.3     9  LYS9        0.1561
      3  C         -3.6470   10.2350    7.7700 C.2     9  LYS9        0.2260
      4  O         -4.6890    9.8050    7.2550 O.2     9  LYS9       -0.2867
      5  CB        -1.3790    9.1410    7.8880 C.3     9  LYS9        0.0271
      6  CG        -0.1950    8.6460    7.0570 C.3     9  LYS9        0.0035
      7  CD         0.4140    7.4670    7.8680 C.3     9  LYS9        0.0206
      8  CE         1.7510    7.0410    7.2550 C.3     9  LYS9        0.1093
      9  NZ         2.4230    6.0420    8.1630 N.3     9  LYS9       -0.1314
     10  N         -4.0300   11.6720   14.9160 N.3    13  ASN13      -0.1240
     11  CA        -2.6810   11.5330   15.4710 C.3    13  ASN13       0.1653
     12  C         -2.0100   12.8870   15.4210 C.2    13  ASN13       0.2266
     13  O         -1.8080   13.4930   14.3690 O.2    13  ASN13      -0.2867
     14  CB        -1.9490   10.4690   14.6390 C.3    13  ASN13       0.1155
     15  CG        -0.4940   10.2070   14.9480 C.2    13  ASN13       0.2627
     16  OD1        0.0900   10.9400   15.7430 O.2    13  ASN13      -0.2716
     17  ND2        0.0870    9.1920   14.2890 N.am   13  ASN13      -0.0877
     18  N          1.0340   13.8410   15.4030 N.3    15  PHE15      -0.1227
     19  CA         2.1170   13.9240   14.4680 C.3    15  PHE15       0.1736
     20  C          1.6410   14.5520   13.1440 C.2    15  PHE15       0.2595
     21  O          2.3370   15.3740   12.5680 O.2    15  PHE15      -0.2718
     22  CB         2.6410   12.4930   14.1940 C.3    15  PHE15       0.0547
     23  CG         3.7290   12.4300   13.1740 C.ar   15  PHE15      -0.0202
     24  CD1        5.0610   12.6090   13.5570 C.ar   15  PHE15      -0.0042
     25  CD2        3.4540   12.1700   11.8390 C.ar   15  PHE15      -0.0042
     26  CE1        6.0820   12.5310   12.6620 C.ar   15  PHE15      -0.0003
     27  CE2        4.5000   12.1120   10.9400 C.ar   15  PHE15      -0.0003
     28  CZ         5.8300   12.2460   11.3190 C.ar   15  PHE15      -0.0000
     29  N          0.5210   14.0760   12.6320 N.am   16  TRP16      -0.1976
     30  CA        -0.0350   14.5660   11.3680 C.3    16  TRP16       0.1640
     31  C         -0.6310   15.9600   11.5710 C.2    16  TRP16       0.2290
     32  O         -0.5430   16.7680   10.6620 O.2    16  TRP16      -0.2864
     33  CB        -1.0660   13.5870   10.7560 C.3    16  TRP16       0.0576
     34  CG        -0.3280   12.2890   10.4880 C.ar   16  TRP16       0.0006
     35  CD1       -0.4140   11.1550   11.2070 C.ar   16  TRP16       0.0946
     36  CD2        0.6380   12.0530    9.4710 C.ar   16  TRP16       0.0152
     37  NE1        0.4580   10.2240   10.6960 N.ar   16  TRP16      -0.2442
     38  CE2        1.1110   10.7400    9.6380 C.ar   16  TRP16       0.0810
     39  CE3        1.1850   12.8310    8.4400 C.ar   16  TRP16       0.0012
     40  CZ2        2.0800   10.2070    8.8040 C.ar   16  TRP16       0.0191
     41  CZ3        2.1330   12.2910    7.6220 C.ar   16  TRP16       0.0001
     42  CH2        2.5900   10.9760    7.8040 C.ar   16  TRP16       0.0015
     43  N         -6.2050    5.3390   10.4090 N.3    42  GLU42      -0.1245
     44  CA        -5.0900    4.5390    9.9050 C.3    42  GLU42       0.1567
     45  C         -5.5430    3.3900    9.0060 C.2    42  GLU42       0.2260
     46  O         -4.7780    3.0470    8.0860 O.2    42  GLU42      -0.2867
     47  CB        -4.2500    3.9110   11.0290 C.3    42  GLU42       0.0388
     48  CG        -3.1770    4.8150   11.5840 C.3    42  GLU42       0.1160
     49  CD        -2.0590    5.1650   10.6750 C.2    42  GLU42       0.3649
     50  OE1       -1.6710    4.4270    9.7430 O.co2  42  GLU42      -0.2457
     51  OE2       -1.5240    6.2870   10.8440 O.co2  42  GLU42      -0.2457
     52  N          7.2870   11.5430    4.5970 N.3    91  ASP91      -0.1225
     53  CA         7.3580   10.6600    5.7470 C.3    91  ASP91       0.1805
     54  C          7.4660    9.1700    5.4720 C.2    91  ASP91       0.2597
     55  O          8.4400    8.5390    5.9060 O.2    91  ASP91      -0.2718
     56  CB         6.1900   10.9610    6.7000 C.3    91  ASP91       0.1424
     57  CG         6.1460    9.9860    7.8970 C.2    91  ASP91       0.3668
     58  OD1        6.9870   10.0600    8.8010 O.co2  91  ASP91      -0.2456
     59  OD2        5.2600    9.1060    7.8960 O.co2  91  ASP91      -0.2456
     60  N          6.4540    8.5920    4.8780 N.am   92  GLU92      -0.1979
     61  CA         6.2180    7.1740    4.7250 C.3    92  GLU92       0.1602
     62  C          6.5420    6.7850    3.2750 C.2    92  GLU92       0.2287
     63  O          5.7100    7.0900    2.4240 O.2    92  GLU92      -0.2864
     64  CB         4.7380    6.8850    5.0340 C.3    92  GLU92       0.0415
     65  CG         4.3500    5.4050    4.9380 C.3    92  GLU92       0.1163
     66  CD         5.0350    4.5750    6.0350 C.2    92  GLU92       0.3649
     67  OE1        4.4980    4.5230    7.1550 O.co2  92  GLU92      -0.2457
     68  OE2        6.0740    3.9920    5.7240 O.co2  92  GLU92      -0.2457
     69  N          8.4490    3.1660    7.1330 N.3   147  SER147     -0.1217
     70  CA         8.8280    3.9220    8.3490 C.3   147  SER147      0.1889
     71  C          9.0680    2.9610    9.5190 C.2   147  SER147      0.2288
     72  O         10.1220    2.9950   10.1560 O.2   147  SER147     -0.2866
     73  CB         7.7190    4.9030    8.6910 C.3   147  SER147      0.2089
     74  OG         6.5040    4.2220    8.8960 O.3   147  SER147     -0.2183
     75  N         12.5920    1.6020   11.4910 N.3   151  ARG151     -0.1245
     76  CA        12.7350    1.6710   12.9500 C.3   151  ARG151      0.1563
     77  C         13.0070    0.2730   13.5020 C.2   151  ARG151      0.2260
     78  O         13.8840    0.0720   14.3320 O.2   151  ARG151     -0.2867
     79  CB        11.4870    2.2560   13.6080 C.3   151  ARG151      0.0307
     80  CG        11.3360    3.7140   13.1390 C.3   151  ARG151      0.0489
     81  CD         9.9960    4.2690   13.6570 C.3   151  ARG151      0.2205
     82  NE         9.8370    5.5330   12.9110 N.pl3 151  ARG151     -0.0865
     83  CZ         8.6660    6.1160   12.6610 C.cat 151  ARG151      0.5346
     84  NH1        7.5400    5.6980   13.2270 N.pl3 151  ARG151      0.1354
     85  NH2        8.6950    7.1880   11.8990 N.pl3 151  ARG151      0.1354
     86  N          0.2850    0.6320   14.1220 N.3   175  TRP175     -0.1241
     87  CA         0.0760    2.0080   14.5350 C.3   175  TRP175      0.1605
     88  C         -1.2010    2.2020   15.3290 C.2   175  TRP175      0.2264
     89  O         -1.7790    3.3110   15.3860 O.2   175  TRP175     -0.2867
     90  CB        -0.0160    2.9130   13.2940 C.3   175  TRP175      0.0550
     91  CG         1.0120    2.7560   12.2190 C.ar  175  TRP175      0.0003
     92  CD1        0.7700    2.4500   10.9100 C.ar  175  TRP175      0.0946
     93  CD2        2.4240    2.8860   12.3220 C.ar  175  TRP175      0.0152
     94  NE1        1.9260    2.3630   10.1870 N.ar  175  TRP175     -0.2442
     95  CE2        2.9790    2.6360   11.0520 C.ar  175  TRP175      0.0810
     96  CE3        3.2860    3.1420   13.4040 C.ar  175  TRP175      0.0012
     97  CZ2        4.3360    2.7190   10.7980 C.ar  175  TRP175      0.0191
     98  CZ3        4.6240    3.2170   13.1380 C.ar  175  TRP175      0.0001
     99  CH2        5.1690    2.9850   11.8650 C.ar  175  TRP175      0.0015
    100  N          5.9100    3.7590   17.2730 N.3   201  ASN201     -0.1240
    101  CA         5.3130    5.0760   17.4140 C.3   201  ASN201      0.1653
    102  C          4.6120    5.2120   18.7630 C.2   201  ASN201      0.2266
    103  O          4.4070    4.2720   19.4960 O.2   201  ASN201     -0.2867
    104  CB         4.4220    5.5590   16.2760 C.3   201  ASN201      0.1155
    105  CG         2.9940    5.1180   16.3250 C.2   201  ASN201      0.2627
    106  OD1        2.5760    4.2380   17.0670 O.2   201  ASN201     -0.2716
    107  ND2        2.1940    5.7920   15.4710 N.am  201  ASN201     -0.0877
    108  N          7.8370    9.6450   17.9000 N.3   227  ASP227     -0.1239
    109  CA         7.0900   10.7560   17.3570 C.3   227  ASP227      0.1674
    110  C          7.2390   12.0010   18.2550 C.2   227  ASP227      0.2266
    111  O          7.4580   13.1100   17.7620 O.2   227  ASP227     -0.2867
    112  CB         5.5800   10.6260   17.0910 C.3   227  ASP227      0.1410
    113  CG         5.2370    9.5860   16.0030 C.2   227  ASP227      0.3668
    114  OD1        6.2470    9.1960   15.3650 O.co2 227  ASP227     -0.2456
    115  OD2        4.0510    9.2390   15.8960 O.co2 227  ASP227     -0.2456
    116  N         10.0150   13.2550   16.6510 N.3   247  GLN247     -0.1245
    117  CA        10.2900   13.6330   15.2640 C.3   247  GLN247      0.1566
    118  C          9.8560   15.1160   15.1610 C.2   247  GLN247      0.2260
    119  O          9.2330   15.6060   16.0750 O.2   247  GLN247     -0.2867
    120  CB         9.4770   12.8360   14.2470 C.3   247  GLN247      0.0367
    121  CG         9.7600   11.3310   14.2570 C.3   247  GLN247      0.0905
    122  CD         9.0880   10.6500   13.0670 C.2   247  GLN247      0.2608
    123  OE1        9.5520   10.8070   11.9470 O.2   247  GLN247     -0.2717
    124  NE2        8.0020    9.9260   13.3050 N.am  247  GLN247     -0.0878
@<TRIPOS>BOND
     1    63    62    2
     2    62    61    1
     3    52    53    1
     4    61    60    1
     5    61    64    1
     6    60    54   am
     7    65    64    1
     8    65    66    1
     9    54    53    1
    10    54    55    2
    11    68    66   ar
    12    53    56    1
    13    66    67   ar
    14     1     2    1
    15    56    57    1
    16     2     3    1
    17     2     5    1
    18     6     7    1
    19     6     5    1
    20    69    70    1
    21     8     7    1
    22     8     9    1
    23     4     3    2
    24    41    42   ar
    25    41    39   ar
    26    42    40   ar
    27    59    57   ar
    28    57    58   ar
    29    46    45    2
    30    70    73    1
    31    70    71    1
    32    39    36   ar
    33    73    74    1
    34    40    38   ar
    35    45    44    1
    36    36    38   ar
    37    36    34   ar
    38    71    72    2
    39    38    37   ar
    40    50    49   ar
    41    44    43    1
    42    44    47    1
    43    94    92   ar
    44    94    95   ar
    45    34    33    1
    46    34    35   ar
    47    32    31    2
    48    49    51   ar
    49    49    48    1
    50    37    35   ar
    51    33    30    1
    52    97    95   ar
    53    97    99   ar
    54    92    91   ar
    55    27    28   ar
    56    27    25   ar
    57    47    48    1
    58    95    93   ar
    59    28    26   ar
    60    30    31    1
    61    30    29    1
    62    75    76    1
    63    25    23   ar
    64    99    98   ar
    65    85    83    1
    66   123   122    2
    67    91    93   ar
    68    91    90    1
    69    93    96   ar
    70    21    20    2
    71    29    20   am
    72    83    82    2
    73    83    84    1
    74    26    24   ar
    75    82    81    1
    76    76    77    1
    77    76    79    1
    78   122   124   am
    79   122   121    1
    80    98    96   ar
    81    80    79    1
    82    80    81    1
    83    20    19    1
    84    23    24   ar
    85    23    22    1
    86    90    87    1
    87    77    78    2
    88    86    87    1
    89    22    19    1
    90   120   121    1
    91   120   117    1
    92    17    15   am
    93    13    12    2
    94    19    18    1
    95    87    88    1
    96    14    15    1
    97    14    11    1
    98    10    11    1
    99    15    16    2
   100   118   117    1
   101   118   119    2
   102   117   116    1
   103    88    89    2
   104   114   113   ar
   105    12    11    1
   106   107   105   am
   107   115   113   ar
   108   113   112    1
   109   104   105    1
   110   104   101    1
   111   105   106    2
   112   112   109    1
   113   100   101    1
   114   109   108    1
   115   109   110    1
   116   101   102    1
   117   111   110    2
   118   102   103    2
