@<TRIPOS>MOLECULE
tmp/1rpkA00.pdb
 162 159 0 0 0
SMALL
GASTEIGER

@<TRIPOS>ATOM
      1  N         10.0900    3.8980   18.0350 N.3    10  TRP10      -0.1241
      2  CA         9.9930    3.6180   19.4560 C.3    10  TRP10       0.1605
      3  C          9.9460    2.1360   19.8420 C.2    10  TRP10       0.2264
      4  O         10.2790    1.7780   20.9710 O.2    10  TRP10      -0.2867
      5  CB         8.7640    4.3230   20.0370 C.3    10  TRP10       0.0550
      6  CG         8.8390    4.4580   21.5180 C.ar   10  TRP10       0.0003
      7  CD1        7.9470    3.9750   22.4350 C.ar   10  TRP10       0.0946
      8  CD2        9.8540    5.1430   22.2650 C.ar   10  TRP10       0.0152
      9  NE1        8.3490    4.3220   23.7090 N.ar   10  TRP10      -0.2442
     10  CE2        9.5110    5.0410   23.6320 C.ar   10  TRP10       0.0810
     11  CE3       11.0210    5.8400   21.9110 C.ar   10  TRP10       0.0012
     12  CZ2       10.2920    5.6120   24.6540 C.ar   10  TRP10       0.0191
     13  CZ3       11.8020    6.4100   22.9290 C.ar   10  TRP10       0.0001
     14  CH2       11.4270    6.2910   24.2860 C.ar   10  TRP10       0.0015
     15  N         17.4540    6.2390   25.9260 N.3    52  TYR52      -0.1241
     16  CA        17.5310    7.6120   26.3580 C.3    52  TYR52       0.1605
     17  C         17.8400    7.8650   27.8270 C.2    52  TYR52       0.2264
     18  O         17.7460    8.9990   28.2940 O.2    52  TYR52      -0.2867
     19  CB        16.2840    8.3610   25.8940 C.3    52  TYR52       0.0534
     20  CG        16.2110    8.3910   24.3870 C.ar   52  TYR52      -0.0201
     21  CD1       15.6070    7.3530   23.6740 C.ar   52  TYR52      -0.0009
     22  CD2       16.7980    9.4310   23.6650 C.ar   52  TYR52      -0.0009
     23  CE1       15.5910    7.3530   22.2780 C.ar   52  TYR52       0.0417
     24  CE2       16.7840    9.4450   22.2620 C.ar   52  TYR52       0.0417
     25  CZ        16.1770    8.4020   21.5820 C.ar   52  TYR52       0.1957
     26  OH        16.1460    8.4110   20.2060 O.3    52  TYR52      -0.2866
     27  N         21.6260   14.2570   30.2350 N.3    93  HIS93      -0.1241
     28  CA        21.5230   13.5090   31.4760 C.3    93  HIS93       0.1621
     29  C         22.2220   12.1510   31.3880 C.2    93  HIS93       0.2264
     30  O         22.6060   11.7030   30.3130 O.2    93  HIS93      -0.2867
     31  CB        20.0560   13.2850   31.8410 C.3    93  HIS93       0.0745
     32  CG        19.2050   12.8880   30.6750 C.ar   93  HIS93       0.0817
     33  ND1       18.6850   13.8100   29.7880 N.ar   93  HIS93      -0.2268
     34  CD2       18.7970   11.6730   30.2380 C.ar   93  HIS93       0.1154
     35  CE1       17.9940   13.1800   28.8560 C.ar   93  HIS93       0.1986
     36  NE2       18.0480   11.8820   29.1040 N.ar   93  HIS93      -0.2212
     37  N         16.2840   17.3210   33.1080 N.3   144  PHE144     -0.1241
     38  CA        15.5580   16.1280   32.6860 C.3   144  PHE144      0.1605
     39  C         15.2280   15.5320   34.0500 C.2   144  PHE144      0.2264
     40  O         16.1260   15.1260   34.7780 O.2   144  PHE144     -0.2867
     41  CB        16.4620   15.1890   31.8900 C.3   144  PHE144      0.0534
     42  CG        15.8240   13.8730   31.5560 C.ar  144  PHE144     -0.0203
     43  CD1       14.7700   13.8000   30.6430 C.ar  144  PHE144     -0.0042
     44  CD2       16.2900   12.6960   32.1380 C.ar  144  PHE144     -0.0042
     45  CE1       14.1880   12.5690   30.3110 C.ar  144  PHE144     -0.0003
     46  CE2       15.7200   11.4630   31.8120 C.ar  144  PHE144     -0.0003
     47  CZ        14.6630   11.4000   30.8940 C.ar  144  PHE144     -0.0000
     48  N         23.1370   13.6090   16.5120 N.3   178  ARG178     -0.1245
     49  CA        21.7780   14.0920   16.6550 C.3   178  ARG178      0.1563
     50  C         21.8030   14.3970   18.1530 C.2   178  ARG178      0.2260
     51  O         21.8840   13.4860   18.9630 O.2   178  ARG178     -0.2867
     52  CB        20.7480   13.0040   16.3240 C.3   178  ARG178      0.0307
     53  CG        19.2900   13.4390   16.5760 C.3   178  ARG178      0.0489
     54  CD        18.8240   13.0830   17.9790 C.3   178  ARG178      0.2205
     55  NE        17.3940   13.3730   18.1960 N.pl3 178  ARG178     -0.0865
     56  CZ        16.7590   13.1300   19.3370 C.cat 178  ARG178      0.5346
     57  NH1       17.4280   12.5850   20.3550 N.pl3 178  ARG178      0.1354
     58  NH2       15.4810   13.4410   19.4790 N.pl3 178  ARG178      0.1354
     59  N         20.2960   14.9730   21.4040 N.3   180  ASP180     -0.1225
     60  CA        19.0860   14.7620   22.1790 C.3   180  ASP180      0.1805
     61  C         18.8490   15.7880   23.2780 C.2   180  ASP180      0.2597
     62  O         19.7670   16.1280   24.0380 O.2   180  ASP180     -0.2718
     63  CB        19.1110   13.3870   22.8540 C.3   180  ASP180      0.1424
     64  CG        17.8520   13.1230   23.6730 C.2   180  ASP180      0.3668
     65  OD1       16.7880   12.9350   23.0380 O.co2 180  ASP180     -0.2456
     66  OD2       17.9160   13.1170   24.9280 O.co2 180  ASP180     -0.2456
     67  N         17.6040   16.2540   23.3740 N.am  181  PHE181     -0.1976
     68  CA        17.2060   17.1970   24.4130 C.3   181  PHE181      0.1639
     69  C         18.1980   18.3460   24.5060 C.2   181  PHE181      0.2290
     70  O         18.6320   18.7270   25.5990 O.2   181  PHE181     -0.2864
     71  CB        17.1100   16.4360   25.7470 C.3   181  PHE181      0.0560
     72  CG        16.4400   17.2030   26.8560 C.ar  181  PHE181     -0.0200
     73  CD1       15.2620   17.9060   26.6310 C.ar  181  PHE181     -0.0042
     74  CD2       16.9940   17.2230   28.1240 C.ar  181  PHE181     -0.0042
     75  CE1       14.6530   18.6230   27.6640 C.ar  181  PHE181     -0.0003
     76  CE2       16.3950   17.9330   29.1620 C.ar  181  PHE181     -0.0003
     77  CZ        15.2300   18.6340   28.9380 C.ar  181  PHE181     -0.0000
     78  N         17.7740   21.2150   24.5930 N.3   183  ARG183     -0.1245
     79  CA        17.2590   22.2850   25.4500 C.3   183  ARG183      0.1563
     80  C         17.8920   22.1790   26.8390 C.2   183  ARG183      0.2260
     81  O         17.8820   23.1330   27.6210 O.2   183  ARG183     -0.2867
     82  CB        15.7620   22.1260   25.6650 C.3   183  ARG183      0.0307
     83  CG        14.8620   22.5560   24.5640 C.3   183  ARG183      0.0489
     84  CD        13.4470   22.2340   25.0220 C.3   183  ARG183      0.2205
     85  NE        13.2260   22.7090   26.3870 N.pl3 183  ARG183     -0.0865
     86  CZ        12.6300   22.0050   27.3440 C.cat 183  ARG183      0.5346
     87  NH1       12.1850   20.7830   27.0930 N.pl3 183  ARG183      0.1354
     88  NH2       12.4960   22.5220   28.5580 N.pl3 183  ARG183      0.1354
     89  N         18.1360   18.7050   18.7450 N.3   205  GLU205     -0.1245
     90  CA        16.7080   18.5840   18.9900 C.3   205  GLU205      0.1567
     91  C         16.3240   19.5670   20.0840 C.2   205  GLU205      0.2260
     92  O         16.3530   19.2320   21.2740 O.2   205  GLU205     -0.2867
     93  CB        16.2890   17.1780   19.4360 C.3   205  GLU205      0.0388
     94  CG        14.7610   17.0750   19.6090 C.3   205  GLU205      0.1160
     95  CD        14.3270   16.3070   20.8580 C.2   205  GLU205      0.3649
     96  OE1       15.1350   16.1750   21.8130 O.co2 205  GLU205     -0.2457
     97  OE2       13.1660   15.8510   20.8980 O.co2 205  GLU205     -0.2457
     98  N         13.2800   21.3240   21.3360 N.3   207  TRP207     -0.1227
     99  CA        11.8310   21.2660   21.2100 C.3   207  TRP207      0.1737
    100  C         11.1400   22.0740   22.2860 C.2   207  TRP207      0.2595
    101  O         11.1150   21.6650   23.4480 O.2   207  TRP207     -0.2718
    102  CB        11.3710   19.8170   21.2890 C.3   207  TRP207      0.0564
    103  CG         9.9390   19.5650   20.9290 C.ar  207  TRP207      0.0003
    104  CD1        8.9690   20.4960   20.6120 C.ar  207  TRP207      0.0946
    105  CD2        9.3020   18.2850   20.8520 C.ar  207  TRP207      0.0152
    106  NE1        7.7780   19.8580   20.3470 N.ar  207  TRP207     -0.2442
    107  CE2        7.9510   18.5060   20.4850 C.ar  207  TRP207      0.0810
    108  CE3        9.7400   16.9710   21.0600 C.ar  207  TRP207      0.0012
    109  CZ2        7.0350   17.4550   20.3170 C.ar  207  TRP207      0.0191
    110  CZ3        8.8280   15.9280   20.8930 C.ar  207  TRP207      0.0001
    111  CH2        7.4900   16.1810   20.5240 C.ar  207  TRP207      0.0015
    112  N         10.5810   23.2120   21.8820 N.am  208  ASP208     -0.1960
    113  CA         9.8700   24.1080   22.7910 C.3   208  ASP208      0.1840
    114  C          8.4010   24.2390   22.4220 C.2   208  ASP208      0.2622
    115  O          8.0070   23.9560   21.2840 O.2   208  ASP208     -0.2715
    116  CB        10.5380   25.4750   22.7920 C.3   208  ASP208      0.1450
    117  CG        11.8350   25.4760   23.5680 C.2   208  ASP208      0.3671
    118  OD1       11.7730   25.4750   24.8180 O.co2 208  ASP208     -0.2456
    119  OD2       12.9140   25.4580   22.9330 O.co2 208  ASP208     -0.2456
    120  N          7.5920   24.6640   23.3890 N.am  209  ASN209     -0.1972
    121  CA         6.1660   24.8160   23.1620 C.3   209  ASN209      0.1688
    122  C          5.8520   25.7740   22.0260 C.2   209  ASN209      0.2292
    123  O          6.4960   26.8120   21.8660 O.2   209  ASN209     -0.2864
    124  CB         5.4420   25.3270   24.4190 C.3   209  ASN209      0.1181
    125  CG         5.6300   24.4280   25.6190 C.2   209  ASN209      0.2629
    126  OD1        6.5490   24.6210   26.4180 O.2   209  ASN209     -0.2716
    127  ND2        4.7630   23.4360   25.7530 N.am  209  ASN209     -0.0877
    128  N         10.2720    9.5270   16.3520 N.3   290  HIS290     -0.1226
    129  CA         9.8940    8.5120   17.3290 C.3   290  HIS290      0.1752
    130  C          9.0410    9.0120   18.4840 C.2   290  HIS290      0.2596
    131  O          8.3420    8.2280   19.1260 O.2   290  HIS290     -0.2718
    132  CB        11.1400    7.8070   17.8580 C.3   290  HIS290      0.0759
    133  CG        12.0730    8.7170   18.5840 C.ar  290  HIS290      0.0818
    134  ND1       12.8500    9.6500   17.9400 N.ar  290  HIS290     -0.2268
    135  CD2       12.3160    8.8720   19.9050 C.ar  290  HIS290      0.1154
    136  CE1       13.5300   10.3470   18.8320 C.ar  290  HIS290      0.1986
    137  NE2       13.2220    9.8950   20.0320 N.ar  290  HIS290     -0.2212
    138  N          9.0940   10.3080   18.7530 N.am  291  ASP291     -0.1974
    139  CA         8.2890   10.8900   19.8220 C.3   291  ASP291      0.1709
    140  C          6.9310   11.3550   19.3210 C.2   291  ASP291      0.2293
    141  O          5.9010   11.0680   19.9380 O.2   291  ASP291     -0.2864
    142  CB         8.9610   12.1250   20.4390 C.3   291  ASP291      0.1436
    143  CG        10.2980   11.8250   21.0640 C.2   291  ASP291      0.3671
    144  OD1       10.4690   10.7280   21.6370 O.co2 291  ASP291     -0.2456
    145  OD2       11.1690   12.7140   20.9970 O.co2 291  ASP291     -0.2456
    146  N          4.4950    6.5100   20.4790 N.3   296  GLN296     -0.1245
    147  CA         4.3700    7.5180   21.5240 C.3   296  GLN296      0.1566
    148  C          3.2890    8.5190   21.0800 C.2   296  GLN296      0.2260
    149  O          2.5370    9.0450   21.8990 O.2   296  GLN296     -0.2867
    150  CB         5.7070    8.2110   21.7910 C.3   296  GLN296      0.0367
    151  CG         6.7500    7.2760   22.3950 C.3   296  GLN296      0.0905
    152  CD         7.9520    8.0130   22.9600 C.2   296  GLN296      0.2608
    153  OE1        7.9650    8.3980   24.1270 O.2   296  GLN296     -0.2717
    154  NE2        8.9630    8.2260   22.1290 N.am  296  GLN296     -0.0878
    155  N          3.1070   11.6260   20.2680 N.3   298  MET298     -0.1245
    156  CA         2.9870   12.8660   20.9950 C.3   298  MET298      0.1570
    157  C          2.4210   13.9940   20.1440 C.2   298  MET298      0.2261
    158  O          1.7520   14.8760   20.6560 O.2   298  MET298     -0.2867
    159  CB         4.3440   13.2820   21.5460 C.3   298  MET298      0.0387
    160  CG         4.8320   12.4070   22.6830 C.3   298  MET298      0.0595
    161  SD         6.4100   12.9770   23.3300 S.3   298  MET298     -0.1393
    162  CE         7.2080   11.3710   23.6910 C.3   298  MET298      0.0692
@<TRIPOS>BOND
     1    52    53    1
     2    52    49    1
     3   128   129    1
     4    48    49    1
     5    53    54    1
     6    49    50    1
     7   129   132    1
     8   129   130    1
     9   132   133    1
    10   134   133   ar
    11   134   136   ar
    12    54    55    1
    13     1     2    1
    14    50    51    2
    15    55    56    2
    16   130   138   am
    17   130   131    2
    18   133   135   ar
    19    89    90    1
    20   138   139    1
    21   136   137   ar
    22    90    93    1
    23    90    91    1
    24   140   139    1
    25   140   141    2
    26    56    58    1
    27    56    57    1
    28    93    94    1
    29     2     3    1
    30     2     5    1
    31    94    95    1
    32   139   142    1
    33     3     4    2
    34   135   137   ar
    35     5     6    1
    36    91    92    2
    37   157   158    2
    38   157   156    1
    39    26    25    1
    40   155   156    1
    41   109   107   ar
    42   109   111   ar
    43   106   107   ar
    44   106   104   ar
    45   142   143    1
    46   146   147    1
    47   107   105   ar
    48   111   110   ar
    49   104   103   ar
    50   105   103   ar
    51   105   108   ar
    52    95    97   ar
    53    95    96   ar
    54   110   108   ar
    55   103   102    1
    56   156   159    1
    57   145   143   ar
    58   143   144   ar
    59   148   147    1
    60   148   149    2
    61    99   102    1
    62    99    98    1
    63    99   100    1
    64   115   114    2
    65    59    60    1
    66     6     8   ar
    67     6     7   ar
    68   147   150    1
    69   159   160    1
    70    25    24   ar
    71    25    23   ar
    72   150   151    1
    73   123   122    2
    74   112   100   am
    75   112   113    1
    76    11     8   ar
    77    11    13   ar
    78   122   121    1
    79   154   152   am
    80    60    63    1
    81    60    61    1
    82    24    22   ar
    83     8    10   ar
    84    23    21   ar
    85   100   101    2
    86   151   152    1
    87   114   113    1
    88   114   120   am
    89     7     9   ar
    90   160   161    1
    91   113   116    1
    92   116   117    1
    93    63    64    1
    94    13    14   ar
    95   119   117   ar
    96   152   153    2
    97    65    64   ar
    98   121   120    1
    99   121   124    1
   100    61    67   am
   101    61    62    2
   102   161   162    1
   103    67    68    1
   104   117   118   ar
   105    10     9   ar
   106    10    12   ar
   107    22    20   ar
   108    64    66   ar
   109    21    20   ar
   110    14    12   ar
   111    20    19    1
   112    68    69    1
   113    68    71    1
   114   124   125    1
   115    69    70    2
   116    83    84    1
   117    83    82    1
   118    78    79    1
   119    84    85    1
   120    79    82    1
   121    79    80    1
   122   125   127   am
   123   125   126    2
   124    71    72    1
   125    19    16    1
   126    15    16    1
   127    16    17    1
   128    85    86    2
   129    73    72   ar
   130    73    75   ar
   131    80    81    2
   132    72    74   ar
   133    87    86    1
   134    86    88    1
   135    75    77   ar
   136    17    18    2
   137    74    76   ar
   138    35    36   ar
   139    35    33   ar
   140    77    76   ar
   141    36    34   ar
   142    33    32   ar
   143    27    28    1
   144    34    32   ar
   145    45    43   ar
   146    45    47   ar
   147    30    29    2
   148    43    42   ar
   149    32    31    1
   150    47    46   ar
   151    29    28    1
   152    28    31    1
   153    42    41    1
   154    42    44   ar
   155    46    44   ar
   156    41    38    1
   157    38    37    1
   158    38    39    1
   159    39    40    2
