@<TRIPOS>MOLECULE
tmp/1rpnD01.pdb
 215 205 0 0 0
SMALL
GASTEIGER

@<TRIPOS>ATOM
      1  N         92.1030   58.6470   32.4750 N.3    84  SER84      -0.1202
      2  CA        91.3930   59.9000   32.7310 C.3    84  SER84       0.2020
      3  C         92.2030   61.0940   33.1790 C.2    84  SER84       0.2619
      4  O         91.6390   62.1530   33.4540 O.2    84  SER84      -0.2717
      5  CB        90.3120   59.6570   33.7780 C.3    84  SER84       0.2103
      6  OG        90.9090   59.4600   35.0500 O.3    84  SER84      -0.2182
      7  N         93.5130   60.9310   33.2680 N.am   85  PHE85      -0.1961
      8  CA        94.3590   62.0160   33.7120 C.3    85  PHE85       0.1771
      9  C         94.9760   62.7840   32.5520 C.2    85  PHE85       0.2619
     10  O         95.7230   62.2370   31.7430 O.2    85  PHE85      -0.2715
     11  CB        95.4510   61.4700   34.6370 C.3    85  PHE85       0.0574
     12  CG        96.2930   62.5320   35.2680 C.ar   85  PHE85      -0.0200
     13  CD1       95.7040   63.6740   35.8060 C.ar   85  PHE85      -0.0042
     14  CD2       97.6770   62.3870   35.3470 C.ar   85  PHE85      -0.0042
     15  CE1       96.4800   64.6610   36.4130 C.ar   85  PHE85      -0.0003
     16  CE2       98.4640   63.3680   35.9530 C.ar   85  PHE85      -0.0003
     17  CZ        97.8630   64.5070   36.4870 C.ar   85  PHE85      -0.0000
     18  N         94.6420   64.0630   32.4780 N.am   86  VAL86      -0.1977
     19  CA        95.1560   64.9290   31.4360 C.3    86  VAL86       0.1596
     20  C         96.6740   64.9760   31.5180 C.2    86  VAL86       0.2287
     21  O         97.3610   64.9040   30.5030 O.2    86  VAL86      -0.2864
     22  CB        94.6020   66.3570   31.5940 C.3    86  VAL86       0.0276
     23  CG1       95.3860   67.3240   30.7220 C.3    86  VAL86       0.0022
     24  CG2       93.1320   66.3790   31.2190 C.3    86  VAL86       0.0022
     25  N         86.8440   68.7770   29.4990 N.3   127  GLU127     -0.1245
     26  CA        88.1550   69.0040   28.9020 C.3   127  GLU127      0.1567
     27  C         87.9700   69.2180   27.4080 C.2   127  GLU127      0.2260
     28  O         88.7530   69.9170   26.7670 O.2   127  GLU127     -0.2867
     29  CB        89.0800   67.8110   29.1390 C.3   127  GLU127      0.0388
     30  CG        89.7050   67.7910   30.5120 C.3   127  GLU127      0.1160
     31  CD        90.3530   69.1160   30.8590 C.2   127  GLU127      0.3649
     32  OE1       89.7820   69.8590   31.6860 O.co2 127  GLU127     -0.2457
     33  OE2       91.4260   69.4230   30.2950 O.co2 127  GLU127     -0.2457
     34  N         94.1320   63.9180   25.8350 N.3   149  TYR149     -0.1241
     35  CA        93.0340   63.3520   26.6130 C.3   149  TYR149      0.1605
     36  C         91.7490   64.0050   26.1210 C.2   149  TYR149      0.2264
     37  O         90.7630   63.3270   25.8330 O.2   149  TYR149     -0.2867
     38  CB        93.2010   63.6530   28.1010 C.3   149  TYR149      0.0534
     39  CG        91.9360   63.4040   28.8970 C.ar  149  TYR149     -0.0201
     40  CD1       91.5160   62.1060   29.1910 C.ar  149  TYR149     -0.0009
     41  CD2       91.1430   64.4680   29.3330 C.ar  149  TYR149     -0.0009
     42  CE1       90.3390   61.8730   29.9040 C.ar  149  TYR149      0.0417
     43  CE2       89.9660   64.2440   30.0430 C.ar  149  TYR149      0.0417
     44  CZ        89.5730   62.9450   30.3240 C.ar  149  TYR149      0.1957
     45  OH        88.4160   62.7160   31.0300 O.3   149  TYR149     -0.2866
     46  N         84.7210   68.7590   35.9810 N.3   178  ASN178     -0.1240
     47  CA        85.4600   68.1710   37.0840 C.3   178  ASN178      0.1653
     48  C         84.6070   67.8270   38.2870 C.2   178  ASN178      0.2266
     49  O         83.8680   68.6660   38.8080 O.2   178  ASN178     -0.2867
     50  CB        86.5730   69.1100   37.5430 C.3   178  ASN178      0.1155
     51  CG        87.5610   69.4110   36.4500 C.2   178  ASN178      0.2627
     52  OD1       87.1940   69.9140   35.3860 O.2   178  ASN178     -0.2716
     53  ND2       88.8250   69.1070   36.7030 N.am  178  ASN178     -0.0877
     54  N         85.0300   65.6720   42.0030 N.3   180  GLU180     -0.1245
     55  CA        85.9590   65.0380   42.9030 C.3   180  GLU180      0.1567
     56  C         85.1850   64.3540   44.0120 C.2   180  GLU180      0.2260
     57  O         83.9520   64.3030   43.9940 O.2   180  GLU180     -0.2867
     58  CB        86.8870   66.1000   43.4960 C.3   180  GLU180      0.0388
     59  CG        87.0760   67.3290   42.6080 C.3   180  GLU180      0.1160
     60  CD        87.8190   67.0290   41.3130 C.2   180  GLU180      0.3649
     61  OE1       87.1990   67.0990   40.2310 O.co2 180  GLU180     -0.2457
     62  OE2       89.0280   66.7260   41.3780 O.co2 180  GLU180     -0.2457
     63  N         88.6090   60.5310   44.7060 N.3   184  ARG184     -0.1245
     64  CA        89.2620   61.1700   43.5740 C.3   184  ARG184      0.1563
     65  C         90.7180   60.7240   43.5050 C.2   184  ARG184      0.2260
     66  O         91.4060   60.6690   44.5220 O.2   184  ARG184     -0.2867
     67  CB        89.1820   62.6900   43.7250 C.3   184  ARG184      0.0307
     68  CG        89.9050   63.4750   42.6530 C.3   184  ARG184      0.0489
     69  CD        89.4240   63.1100   41.2670 C.3   184  ARG184      0.2205
     70  NE        89.2840   64.2990   40.4400 N.pl3 184  ARG184     -0.0865
     71  CZ        89.1970   64.2900   39.1160 C.cat 184  ARG184      0.5346
     72  NH1       89.2400   63.1430   38.4470 N.pl3 184  ARG184      0.1354
     73  NH2       89.0590   65.4340   38.4640 N.pl3 184  ARG184      0.1354
     74  N         96.2280   61.7960   41.5060 N.3   187  GLU187     -0.1231
     75  CA        96.8010   62.5650   40.4020 C.3   187  GLU187      0.1699
     76  C         96.1450   63.9230   40.2190 C.2   187  GLU187      0.2592
     77  O         96.7920   64.8860   39.8170 O.2   187  GLU187     -0.2718
     78  CB        96.6450   61.8030   39.0870 C.3   187  GLU187      0.0402
     79  CG        97.5910   60.6400   38.8850 C.3   187  GLU187      0.1161
     80  CD        97.1100   59.7220   37.7770 C.2   187  GLU187      0.3649
     81  OE1       97.9520   59.0710   37.1270 O.co2 187  GLU187     -0.2457
     82  OE2       95.8840   59.6460   37.5660 O.co2 187  GLU187     -0.2457
     83  N         94.8520   63.9910   40.5020 N.am  188  PHE188     -0.1962
     84  CA        94.1050   65.2180   40.3130 C.3   188  PHE188      0.1771
     85  C         94.3540   66.2560   41.3840 C.2   188  PHE188      0.2619
     86  O         94.5520   65.9360   42.5530 O.2   188  PHE188     -0.2715
     87  CB        92.6260   64.8770   40.1520 C.3   188  PHE188      0.0574
     88  CG        92.3790   63.9120   39.0310 C.ar  188  PHE188     -0.0200
     89  CD1       92.4140   62.5390   39.2550 C.ar  188  PHE188     -0.0042
     90  CD2       92.2260   64.3740   37.7270 C.ar  188  PHE188     -0.0042
     91  CE1       92.3060   61.6390   38.1940 C.ar  188  PHE188     -0.0003
     92  CE2       92.1180   63.4840   36.6610 C.ar  188  PHE188     -0.0003
     93  CZ        92.1620   62.1160   36.8940 C.ar  188  PHE188     -0.0000
     94  N         94.3470   67.5110   40.9590 N.am  189  VAL189     -0.1963
     95  CA        94.6570   68.6220   41.8370 C.3   189  VAL189      0.1727
     96  C         93.9170   68.6840   43.1690 C.2   189  VAL189      0.2616
     97  O         94.5310   68.9680   44.1940 O.2   189  VAL189     -0.2715
     98  CB        94.5200   69.9640   41.0730 C.3   189  VAL189      0.0290
     99  CG1       93.0660   70.3750   40.9700 C.3   189  VAL189      0.0023
    100  CG2       95.3760   71.0300   41.7480 C.3   189  VAL189      0.0023
    101  N         92.6180   68.4020   43.1790 N.am  190  THR190     -0.1951
    102  CA        91.8770   68.4570   44.4350 C.3   190  THR190      0.1897
    103  C         92.3630   67.4060   45.4270 C.2   190  THR190      0.2313
    104  O         92.6650   67.7270   46.5770 O.2   190  THR190     -0.2863
    105  CB        90.3660   68.2680   44.2160 C.3   190  THR190      0.1794
    106  OG1       90.1270   67.0160   43.5640 O.3   190  THR190     -0.2208
    107  CG2       89.8090   69.4010   43.3680 C.3   190  THR190      0.0378
    108  N         95.1520   65.7380   45.2990 N.3   192  LYS192     -0.1245
    109  CA        96.5610   65.9790   45.5710 C.3   192  LYS192      0.1561
    110  C         96.6560   67.0170   46.6820 C.2   192  LYS192      0.2260
    111  O         97.4420   66.8740   47.6170 O.2   192  LYS192     -0.2867
    112  CB        97.2710   66.5000   44.3230 C.3   192  LYS192      0.0271
    113  CG        98.7140   66.9070   44.5750 C.3   192  LYS192      0.0035
    114  CD        99.4040   67.3510   43.2950 C.3   192  LYS192      0.0206
    115  CE       100.8910   67.5640   43.5370 C.3   192  LYS192      0.1093
    116  NZ       101.6060   67.9660   42.2950 N.3   192  LYS192     -0.1314
    117  N        103.4580   70.8630   46.2820 N.3   209  ARG209     -0.1231
    118  CA       103.9340   71.3390   44.9920 C.3   209  ARG209      0.1694
    119  C        102.8320   71.2650   43.9510 C.2   209  ARG209      0.2592
    120  O        102.3400   70.1880   43.6310 O.2   209  ARG209     -0.2718
    121  CB       105.1280   70.5160   44.5130 C.3   209  ARG209      0.0321
    122  CG       106.4160   70.8000   45.2520 C.3   209  ARG209      0.0489
    123  CD       107.5520   69.9670   44.6920 C.3   209  ARG209      0.2205
    124  NE       108.8210   70.2970   45.3290 N.pl3 209  ARG209     -0.0865
    125  CZ       109.4640   71.4500   45.1640 C.cat 209  ARG209      0.5346
    126  NH1      110.6140   71.6620   45.7910 N.pl3 209  ARG209      0.1354
    127  NH2      108.9660   72.3840   44.3640 N.pl3 209  ARG209      0.1354
    128  N        102.4450   72.4220   43.4310 N.am  210  LEU210     -0.1966
    129  CA       101.4180   72.4920   42.4060 C.3   210  LEU210      0.1728
    130  C        101.9970   73.2430   41.2300 C.2   210  LEU210      0.2617
    131  O        103.0550   73.8620   41.3430 O.2   210  LEU210     -0.2715
    132  CB       100.1770   73.2250   42.9220 C.3   210  LEU210      0.0311
    133  CG        99.3650   72.5200   44.0110 C.3   210  LEU210      0.0022
    134  CD1       98.1130   73.3310   44.3180 C.3   210  LEU210      0.0001
    135  CD2       98.9920   71.1150   43.5420 C.3   210  LEU210      0.0001
    136  N        101.3060   73.1760   40.1010 N.am  211  GLY211     -0.1940
    137  CA       101.7670   73.8720   38.9200 C.3   211  GLY211      0.2014
    138  C        101.0070   75.1730   38.7910 C.2   211  GLY211      0.2638
    139  O        101.2190   76.1100   39.5590 O.2   211  GLY211     -0.2714
    140  N        100.1090   75.2250   37.8190 N.am  212  ASN212     -0.1972
    141  CA        99.3110   76.4130   37.5850 C.3   212  ASN212      0.1688
    142  C         98.1320   76.4830   38.5500 C.2   212  ASN212      0.2292
    143  O         97.1280   75.7990   38.3670 O.2   212  ASN212     -0.2864
    144  CB        98.8130   76.4180   36.1430 C.3   212  ASN212      0.1181
    145  CG        97.7990   77.5020   35.8870 C.2   212  ASN212      0.2629
    146  OD1       97.8250   78.5500   36.5300 O.2   212  ASN212     -0.2716
    147  ND2       96.9040   77.2660   34.9330 N.am  212  ASN212     -0.0877
    148  N         94.5190   78.2040   37.3450 N.3   215  ALA215     -0.1245
    149  CA        93.5110   77.4970   36.5710 C.3   215  ALA215      0.1562
    150  C         92.1950   77.4890   37.3400 C.2   215  ALA215      0.2260
    151  O         92.1700   77.2500   38.5480 O.2   215  ALA215     -0.2867
    152  CB        93.9730   76.0640   36.2850 C.3   215  ALA215      0.0290
    153  N         88.4590   75.8820   37.8500 N.3   217  ARG217     -0.1245
    154  CA        87.7080   74.6790   37.5750 C.3   217  ARG217      0.1563
    155  C         86.3340   74.6740   38.2070 C.2   217  ARG217      0.2260
    156  O         86.1180   75.2060   39.3010 O.2   217  ARG217     -0.2867
    157  CB        88.4860   73.4500   38.0440 C.3   217  ARG217      0.0307
    158  CG        89.6630   73.0870   37.1570 C.3   217  ARG217      0.0489
    159  CD        89.1790   72.6290   35.7880 C.3   217  ARG217      0.2205
    160  NE        90.2850   72.2790   34.9040 N.pl3 217  ARG217     -0.0865
    161  CZ        91.0680   73.1640   34.2930 C.cat 217  ARG217      0.5346
    162  NH1       92.0530   72.7460   33.5080 N.pl3 217  ARG217      0.1354
    163  NH2       90.8570   74.4680   34.4490 N.pl3 217  ARG217      0.1354
    164  N         84.1320   72.5610   39.9410 N.3   219  TRP219     -0.1241
    165  CA        84.2420   71.3200   40.6970 C.3   219  TRP219      0.1605
    166  C         82.9580   70.8710   41.3670 C.2   219  TRP219      0.2264
    167  O         82.3470   71.6180   42.1260 O.2   219  TRP219     -0.2867
    168  CB        85.3180   71.4460   41.7760 C.3   219  TRP219      0.0550
    169  CG        86.7170   71.3390   41.2790 C.ar  219  TRP219      0.0003
    170  CD1       87.2890   70.2610   40.6700 C.ar  219  TRP219      0.0946
    171  CD2       87.7460   72.3260   41.3970 C.ar  219  TRP219      0.0152
    172  NE1       88.6110   70.5110   40.4040 N.ar  219  TRP219     -0.2442
    173  CE2       88.9210   71.7730   40.8400 C.ar  219  TRP219      0.0810
    174  CE3       87.7920   73.6250   41.9200 C.ar  219  TRP219      0.0012
    175  CZ2       90.1310   72.4740   40.7920 C.ar  219  TRP219      0.0191
    176  CZ3       88.9990   74.3240   41.8710 C.ar  219  TRP219      0.0001
    177  CH2       90.1500   73.7440   41.3100 C.ar  219  TRP219      0.0015
    178  N         92.4690   77.0920   41.2990 N.3   251  VAL251     -0.1245
    179  CA        93.1030   76.0220   42.0520 C.3   251  VAL251      0.1561
    180  C         93.6110   76.6070   43.3690 C.2   251  VAL251      0.2260
    181  O         93.5670   75.9550   44.4140 O.2   251  VAL251     -0.2867
    182  CB        94.2860   75.4270   41.2610 C.3   251  VAL251      0.0252
    183  CG1       95.1480   74.5630   42.1720 C.3   251  VAL251      0.0019
    184  CG2       93.7540   74.6050   40.0810 C.3   251  VAL251      0.0019
    185  N        104.7200   70.7050   37.0960 N.3   276  PHE276     -0.1241
    186  CA       103.3150   70.3290   37.0500 C.3   276  PHE276      0.1605
    187  C        102.4950   71.1590   36.0710 C.2   276  PHE276      0.2264
    188  O        101.2770   70.9990   35.9750 O.2   276  PHE276     -0.2867
    189  CB       102.7110   70.3710   38.4570 C.3   276  PHE276      0.0534
    190  CG       103.2870   69.3310   39.3800 C.ar  276  PHE276     -0.0203
    191  CD1      104.1430   69.6910   40.4150 C.ar  276  PHE276     -0.0042
    192  CD2      103.0230   67.9780   39.1690 C.ar  276  PHE276     -0.0042
    193  CE1      104.7330   68.7190   41.2280 C.ar  276  PHE276     -0.0003
    194  CE2      103.6070   66.9980   39.9750 C.ar  276  PHE276     -0.0003
    195  CZ       104.4670   67.3720   41.0080 C.ar  276  PHE276     -0.0000
    196  N        101.0600   72.2890   32.4550 N.3   278  ARG278     -0.1245
    197  CA       100.6120   71.5400   31.2880 C.3   278  ARG278      0.1563
    198  C        101.1280   72.1760   29.9950 C.2   278  ARG278      0.2260
    199  O        101.2420   73.3940   29.9000 O.2   278  ARG278     -0.2867
    200  CB        99.0770   71.5170   31.2580 C.3   278  ARG278      0.0307
    201  CG        98.4010   70.9730   32.5240 C.3   278  ARG278      0.0489
    202  CD        98.4220   69.4620   32.5240 C.3   278  ARG278      0.2205
    203  NE        97.9990   68.8570   33.7830 N.pl3 278  ARG278     -0.0865
    204  CZ        96.7480   68.7890   34.2270 C.cat 278  ARG278      0.5346
    205  NH1       96.5020   68.1990   35.3890 N.pl3 278  ARG278      0.1354
    206  NH2       95.7450   69.3040   33.5250 N.pl3 278  ARG278      0.1354
    207  N         97.4590   74.3780   28.4980 N.3   281  GLU281     -0.1245
    208  CA        96.5810   74.4900   29.6450 C.3   281  GLU281      0.1567
    209  C         95.1380   74.8230   29.3070 C.2   281  GLU281      0.2260
    210  O         94.8360   75.4200   28.2740 O.2   281  GLU281     -0.2867
    211  CB        97.1480   75.5510   30.6030 C.3   281  GLU281      0.0388
    212  CG        96.3140   75.8260   31.8560 C.3   281  GLU281      0.1160
    213  CD        96.2050   74.6210   32.7680 C.2   281  GLU281      0.3649
    214  OE1       95.4430   73.6840   32.4370 O.co2 281  GLU281     -0.2457
    215  OE2       96.8880   74.6060   33.8140 O.co2 281  GLU281     -0.2457
@<TRIPOS>BOND
     1    37    36    2
     2    34    35    1
     3    36    35    1
     4    35    38    1
     5    28    27    2
     6    27    26    1
     7    38    39    1
     8   210   209    2
     9   207   208    1
    10    39    40   ar
    11    39    41   ar
    12    26    29    1
    13    26    25    1
    14    29    30    1
    15    40    42   ar
    16   209   208    1
    17    41    43   ar
    18   208   211    1
    19   199   198    2
    20    42    44   ar
    21   198   197    1
    22    43    44   ar
    23    33    31   ar
    24    44    45    1
    25    21    20    2
    26    30    31    1
    27   211   212    1
    28    23    22    1
    29    31    32   ar
    30    24    22    1
    31   200   197    1
    32   200   201    1
    33   197   196    1
    34    19    20    1
    35    19    22    1
    36    19    18    1
    37    10     9    2
    38   212   213    1
    39   214   213   ar
    40     1     2    1
    41    18     9   am
    42   202   201    1
    43   202   203    1
    44     9     8    1
    45     2     3    1
    46     2     5    1
    47   213   215   ar
    48     3     7   am
    49     3     4    2
    50     7     8    1
    51   162   161    1
    52   206   204    1
    53     8    11    1
    54     5     6    1
    55   203   204    2
    56   204   205    1
    57   161   163    1
    58   161   160    2
    59    11    12    1
    60   160   159    1
    61   147   145   am
    62    12    14   ar
    63    12    13   ar
    64    14    16   ar
    65    52    51    2
    66   159   158    1
    67    13    15   ar
    68   145   144    1
    69   145   146    2
    70    16    17   ar
    71   188   187    2
    72    46    47    1
    73   187   186    1
    74   144   141    1
    75   152   149    1
    76    15    17   ar
    77    51    53   am
    78    51    50    1
    79   149   150    1
    80   149   148    1
    81    92    93   ar
    82    92    90   ar
    83    93    91   ar
    84   186   185    1
    85   186   189    1
    86    47    50    1
    87    47    48    1
    88    81    80   ar
    89   158   157    1
    90   150   151    2
    91    82    80   ar
    92   154   153    1
    93   154   157    1
    94   154   155    1
    95   141   140    1
    96   141   142    1
    97    90    88   ar
    98    80    79    1
    99   140   138   am
   100    91    89   ar
   101   155   156    2
   102    48    49    2
   103   143   142    2
   104    72    71    1
   105   189   190    1
   106    73    71    1
   107   138   137    1
   108   138   139    2
   109    79    78    1
   110   137   136    1
   111    88    89   ar
   112    88    87    1
   113    78    75    1
   114    71    70    2
   115   192   190   ar
   116   192   194   ar
   117   190   191   ar
   118    77    76    2
   119   164   165    1
   120   194   195   ar
   121   184   182    1
   122   136   130   am
   123    87    84    1
   124    76    75    1
   125    76    83   am
   126    61    60   ar
   127    84    83    1
   128    84    85    1
   129    75    74    1
   130   172   170   ar
   131   172   173   ar
   132   191   193   ar
   133    70    69    1
   134   170   169   ar
   135   165   166    1
   136   165   168    1
   137   175   173   ar
   138   175   177   ar
   139   173   171   ar
   140    94    85   am
   141    94    95    1
   142    99    98    1
   143   195   193   ar
   144    98   100    1
   145    98    95    1
   146   130   131    2
   147   130   129    1
   148   182   179    1
   149   182   183    1
   150    69    68    1
   151   169   171   ar
   152   169   168    1
   153   178   179    1
   154   177   176   ar
   155    60    62   ar
   156    60    59    1
   157   166   167    2
   158    85    86    2
   159   171   174   ar
   160    95    96    1
   161   176   174   ar
   162    54    55    1
   163   179   180    1
   164   116   115    1
   165   129   132    1
   166   129   128    1
   167    59    58    1
   168    68    67    1
   169    55    58    1
   170    55    56    1
   171   132   133    1
   172    96   101   am
   173    96    97    2
   174   101   102    1
   175   114   115    1
   176   114   113    1
   177   107   105    1
   178   180   181    2
   179   128   119   am
   180    65    64    1
   181    65    66    2
   182   135   133    1
   183   106   105    1
   184    64    67    1
   185    64    63    1
   186   120   119    2
   187   119   118    1
   188    57    56    2
   189   133   134    1
   190   105   102    1
   191   112   113    1
   192   112   109    1
   193   127   125    1
   194   102   103    1
   195   121   118    1
   196   121   122    1
   197   123   122    1
   198   123   124    1
   199   118   117    1
   200   125   124    2
   201   125   126    1
   202   108   109    1
   203   103   104    2
   204   109   110    1
   205   110   111    2
