@<TRIPOS>MOLECULE
tmp/1rpqC01.pdb
 79 76 0 0 0
SMALL
GASTEIGER

@<TRIPOS>ATOM
      1  N        147.0670   35.5330   69.7010 N.3    36  HIS36      -0.1226
      2  CA       145.6140   35.6090   69.5320 C.3    36  HIS36       0.1752
      3  C        144.9850   36.2020   70.7890 C.2    36  HIS36       0.2596
      4  O        144.8900   35.5360   71.8150 O.2    36  HIS36      -0.2718
      5  CB       145.0240   34.2210   69.2480 C.3    36  HIS36       0.0759
      6  CG       143.5290   34.2080   69.1290 C.ar   36  HIS36       0.0818
      7  ND1      142.7840   35.3530   68.9420 N.ar   36  HIS36      -0.2268
      8  CD2      142.6420   33.1850   69.1840 C.ar   36  HIS36       0.1154
      9  CE1      141.5010   35.0390   68.8890 C.ar   36  HIS36       0.1986
     10  NE2      141.3880   33.7310   69.0330 N.ar   36  HIS36      -0.2212
     11  N        144.5280   37.4460   70.6810 N.am   37  ASN37      -0.1974
     12  CA       143.9170   38.1630   71.7960 C.3    37  ASN37       0.1688
     13  C        144.9460   38.4340   72.8960 C.2    37  ASN37       0.2292
     14  O        144.6140   38.4470   74.0790 O.2    37  ASN37      -0.2864
     15  CB       142.7380   37.3770   72.3740 C.3    37  ASN37       0.1181
     16  CG       141.4490   37.5820   71.6050 C.2    37  ASN37       0.2629
     17  OD1      141.3200   38.5130   70.8130 O.2    37  ASN37      -0.2716
     18  ND2      140.4850   36.7050   71.8860 N.am   37  ASN37      -0.0877
     19  N        133.1620   31.1020   66.8860 N.3    55  PHE55      -0.1227
     20  CA       133.0980   32.4940   67.3170 C.3    55  PHE55       0.1736
     21  C        134.3660   32.8210   68.0850 C.2    55  PHE55       0.2595
     22  O        134.9780   33.8610   67.8700 O.2    55  PHE55      -0.2718
     23  CB       131.8730   32.7220   68.1910 C.3    55  PHE55       0.0547
     24  CG       130.5860   32.6120   67.4500 C.ar   55  PHE55      -0.0202
     25  CD1      129.7600   31.5070   67.6200 C.ar   55  PHE55      -0.0042
     26  CD2      130.2020   33.6080   66.5700 C.ar   55  PHE55      -0.0042
     27  CE1      128.5620   31.4000   66.9220 C.ar   55  PHE55      -0.0003
     28  CE2      129.0070   33.5100   65.8670 C.ar   55  PHE55      -0.0003
     29  CZ       128.1850   32.4030   66.0430 C.ar   55  PHE55      -0.0000
     30  N        134.7930   31.8600   68.9030 N.am   56  GLU56      -0.1979
     31  CA       135.9980   31.9490   69.7240 C.3    56  GLU56       0.1602
     32  C        137.2130   32.4100   68.9130 C.2    56  GLU56       0.2287
     33  O        138.0560   33.1450   69.4250 O.2    56  GLU56      -0.2864
     34  CB       136.2900   30.5790   70.3550 C.3    56  GLU56       0.0415
     35  CG       135.2950   30.1070   71.4550 C.3    56  GLU56       0.1163
     36  CD       133.8050   30.0730   71.0270 C.2    56  GLU56       0.3649
     37  OE1      133.4250   29.2880   70.1150 O.co2  56  GLU56      -0.2457
     38  OE2      133.0020   30.8220   71.6380 O.co2  56  GLU56      -0.2457
     39  N        137.3900   34.5650   66.6960 N.3    58  SER58      -0.1202
     40  CA       137.3460   35.9910   66.4110 C.3    58  SER58       0.2020
     41  C        138.4180   36.6710   67.2470 C.2    58  SER58       0.2619
     42  O        138.9460   36.0710   68.1830 O.2    58  SER58      -0.2717
     43  CB       135.9910   36.5700   66.8050 C.3    58  SER58       0.2103
     44  OG       134.9330   35.8370   66.2110 O.3    58  SER58      -0.2182
     45  N        138.7610   37.9090   66.9070 N.am   59  GLY59      -0.1942
     46  CA       139.7540   38.6080   67.7010 C.3    59  GLY59       0.2014
     47  C        140.9360   39.2050   66.9780 C.2    59  GLY59       0.2638
     48  O        141.0110   39.2100   65.7510 O.2    59  GLY59      -0.2714
     49  N        141.8700   39.7050   67.7740 N.am   60  GLU60      -0.1977
     50  CA       143.0880   40.3270   67.2850 C.3    60  GLU60       0.1602
     51  C        144.1940   39.2880   67.0730 C.2    60  GLU60       0.2287
     52  O        144.3760   38.3980   67.9000 O.2    60  GLU60      -0.2864
     53  CB       143.5330   41.3670   68.3060 C.3    60  GLU60       0.0415
     54  CG       144.8320   42.0740   68.0020 C.3    60  GLU60       0.1163
     55  CD       145.3450   42.8550   69.2030 C.2    60  GLU60       0.3649
     56  OE1      145.7800   42.2130   70.1880 O.co2  60  GLU60      -0.2457
     57  OE2      145.3100   44.1050   69.1620 O.co2  60  GLU60      -0.2457
     58  N        136.6200   38.5600   62.4380 N.3    77  GLU77      -0.1231
     59  CA       135.3180   38.4110   63.0740 C.3    77  GLU77       0.1699
     60  C        134.4670   37.2860   62.4670 C.2    77  GLU77       0.2592
     61  O        134.2990   37.2000   61.2450 O.2    77  GLU77      -0.2718
     62  CB       134.5790   39.7430   63.0560 C.3    77  GLU77       0.0402
     63  CG       133.4570   39.8260   64.0870 C.3    77  GLU77       0.1161
     64  CD       132.7870   41.1990   64.1380 C.2    77  GLU77       0.3649
     65  OE1      133.1570   42.0920   63.3310 O.co2  77  GLU77      -0.2457
     66  OE2      131.8790   41.3770   64.9890 O.co2  77  GLU77      -0.2457
     67  N        133.9460   36.4140   63.3270 N.am   78  VAL78      -0.1980
     68  CA       133.1450   35.2790   62.8830 C.3    78  VAL78       0.1595
     69  C        131.6470   35.5010   63.0590 C.2    78  VAL78       0.2287
     70  O        131.1690   35.6790   64.1760 O.2    78  VAL78      -0.2864
     71  CB       133.5470   34.0210   63.6400 C.3    78  VAL78       0.0276
     72  CG1      132.7280   32.8440   63.1730 C.3    78  VAL78       0.0022
     73  CG2      135.0090   33.7540   63.4510 C.3    78  VAL78       0.0022
     74  N        127.3620   34.4720   61.9600 N.3    80  SER80      -0.1217
     75  CA       126.4690   33.3610   61.6910 C.3    80  SER80       0.1889
     76  C        125.1060   33.9080   61.3260 C.2    80  SER80       0.2288
     77  O        124.1690   33.8520   62.1230 O.2    80  SER80      -0.2866
     78  CB       126.3700   32.4220   62.8790 C.3    80  SER80       0.2089
     79  OG       125.5620   31.3000   62.5390 O.3    80  SER80      -0.2183
@<TRIPOS>BOND
     1    61    60    2
     2    76    75    1
     3    76    77    2
     4    75    74    1
     5    75    78    1
     6    58    59    1
     7    60    59    1
     8    60    67   am
     9    79    78    1
    10    68    69    1
    11    68    67    1
    12    68    71    1
    13    62    59    1
    14    62    63    1
    15    69    70    2
    16    72    71    1
    17    65    64   ar
    18    73    71    1
    19    63    64    1
    20    64    66   ar
    21    48    47    2
    22    28    29   ar
    23    28    26   ar
    24    29    27   ar
    25    44    43    1
    26    40    39    1
    27    40    43    1
    28    40    41    1
    29    26    24   ar
    30    19    20    1
    31    45    41   am
    32    45    46    1
    33    27    25   ar
    34    47    46    1
    35    47    49   am
    36    51    50    1
    37    51    52    2
    38    41    42    2
    39    50    49    1
    40    50    53    1
    41    20    21    1
    42    20    23    1
    43    24    25   ar
    44    24    23    1
    45    22    21    2
    46    54    53    1
    47    54    55    1
    48    21    30   am
    49     9     7   ar
    50     9    10   ar
    51    30    31    1
    52    32    33    2
    53    32    31    1
    54     7     6   ar
    55    10     8   ar
    56     6     8   ar
    57     6     5    1
    58    57    55   ar
    59    55    56   ar
    60     5     2    1
    61     2     1    1
    62     2     3    1
    63    31    34    1
    64    37    36   ar
    65    34    35    1
    66    11     3   am
    67    11    12    1
    68     3     4    2
    69    17    16    2
    70    36    35    1
    71    36    38   ar
    72    16    18   am
    73    16    15    1
    74    12    15    1
    75    12    13    1
    76    13    14    2
