@<TRIPOS>MOLECULE
tmp/1rpwB00.pdb
 171 163 0 0 0
SMALL
GASTEIGER

@<TRIPOS>ATOM
      1  N        -54.9290  -55.6450    9.6450 N.3    11  LYS11      -0.1245
      2  CA       -55.6710  -55.1660    8.4790 C.3    11  LYS11       0.1561
      3  C        -55.6580  -56.2420    7.3810 C.2    11  LYS11       0.2260
      4  O        -56.7170  -56.6580    6.8860 O.2    11  LYS11      -0.2867
      5  CB       -55.0940  -53.8430    7.9370 C.3    11  LYS11       0.0271
      6  CG       -55.8860  -53.3010    6.7430 C.3    11  LYS11       0.0035
      7  CD       -55.4280  -51.9210    6.2500 C.3    11  LYS11       0.0206
      8  CE       -55.8240  -51.7750    4.7570 C.3    11  LYS11       0.1093
      9  NZ       -55.5630  -50.4680    4.0510 N.3    11  LYS11      -0.1314
     10  N        -58.1210  -45.9950    8.9840 N.3    56  GLU56      -0.1245
     11  CA       -58.6470  -45.9560    7.6230 C.3    56  GLU56       0.1567
     12  C        -59.4300  -44.6750    7.3790 C.2    56  GLU56       0.2260
     13  O        -59.3030  -44.0510    6.3220 O.2    56  GLU56      -0.2867
     14  CB       -59.5530  -47.1610    7.3620 C.3    56  GLU56       0.0388
     15  CG       -58.8400  -48.5140    7.3330 C.3    56  GLU56       0.1160
     16  CD       -57.8490  -48.6630    6.1770 C.2    56  GLU56       0.3649
     17  OE1      -58.2800  -48.6870    4.9950 O.co2  56  GLU56      -0.2457
     18  OE2      -56.6320  -48.7560    6.4630 O.co2  56  GLU56      -0.2457
     19  N        -56.9330  -41.9750    6.7570 N.3    59  LYS59      -0.1231
     20  CA       -56.3590  -42.0090    5.4270 C.3    59  LYS59       0.1693
     21  C        -57.3870  -41.4720    4.4360 C.2    59  LYS59       0.2592
     22  O        -57.0470  -40.7020    3.5410 O.2    59  LYS59      -0.2718
     23  CB       -55.9450  -43.4310    5.0520 C.3    59  LYS59       0.0285
     24  CG       -54.9650  -44.0510    6.0280 C.3    59  LYS59       0.0035
     25  CD       -54.3840  -45.3710    5.4920 C.3    59  LYS59       0.0206
     26  CE       -53.2280  -45.8930    6.3670 C.3    59  LYS59       0.1093
     27  NZ       -52.5560  -47.0620    5.7400 N.3    59  LYS59      -0.1314
     28  N        -58.6490  -41.8500    4.6020 N.am   60  TRP60      -0.1976
     29  CA       -59.6700  -41.3640    3.6920 C.3    60  TRP60       0.1640
     30  C        -59.7190  -39.8390    3.7440 C.2    60  TRP60       0.2290
     31  O        -59.7960  -39.1940    2.7030 O.2    60  TRP60      -0.2864
     32  CB       -61.0300  -41.9810    4.0360 C.3    60  TRP60       0.0576
     33  CG       -62.2080  -41.3490    3.3350 C.ar   60  TRP60       0.0006
     34  CD1      -63.0420  -40.3890    3.8350 C.ar   60  TRP60       0.0946
     35  CD2      -62.6560  -41.6080    2.0050 C.ar   60  TRP60       0.0152
     36  NE1      -63.9780  -40.0350    2.9020 N.ar   60  TRP60      -0.2442
     37  CE2      -63.7670  -40.7660    1.7680 C.ar   60  TRP60       0.0810
     38  CE3      -62.2260  -42.4650    0.9900 C.ar   60  TRP60       0.0012
     39  CZ2      -64.4560  -40.7570    0.5600 C.ar   60  TRP60       0.0191
     40  CZ3      -62.9070  -42.4580   -0.2150 C.ar   60  TRP60       0.0001
     41  CH2      -64.0140  -41.6070   -0.4210 C.ar   60  TRP60       0.0015
     42  N        -56.7280  -38.4160    2.0590 N.3    63  GLN63      -0.1245
     43  CA       -56.9460  -38.5850    0.6330 C.3    63  GLN63       0.1566
     44  C        -57.8750  -37.4940    0.0910 C.2    63  GLN63       0.2260
     45  O        -57.5560  -36.8320   -0.8990 O.2    63  GLN63      -0.2867
     46  CB       -57.5610  -39.9560    0.3610 C.3    63  GLN63       0.0367
     47  CG       -56.7030  -40.9200   -0.4430 C.3    63  GLN63       0.0905
     48  CD       -57.4190  -42.2630   -0.6930 C.2    63  GLN63       0.2608
     49  OE1      -58.3820  -42.3390   -1.4760 O.2    63  GLN63      -0.2717
     50  NE2      -56.9590  -43.3210   -0.0140 N.am   63  GLN63      -0.0878
     51  N        -67.0720  -41.8780   -3.0560 N.3    85  SER85      -0.1217
     52  CA       -67.5880  -42.8240   -2.0930 C.3    85  SER85       0.1889
     53  C        -68.1530  -44.0350   -2.8140 C.2    85  SER85       0.2288
     54  O        -68.1490  -45.1390   -2.2900 O.2    85  SER85      -0.2866
     55  CB       -68.6850  -42.1580   -1.2670 C.3    85  SER85       0.2089
     56  OG       -68.2620  -40.8890   -0.7980 O.3    85  SER85      -0.2183
     57  N        -64.8360  -45.7830   -4.9630 N.3    88  THR88      -0.1203
     58  CA       -63.8240  -46.3970   -4.1230 C.3    88  THR88       0.1994
     59  C        -64.3220  -47.6480   -3.4210 C.2    88  THR88       0.2617
     60  O        -63.5890  -48.6250   -3.3540 O.2    88  THR88      -0.2717
     61  CB       -63.2720  -45.4470   -3.0500 C.3    88  THR88       0.1784
     62  OG1      -64.3110  -45.1360   -2.1160 O.3    88  THR88      -0.2211
     63  CG2      -62.7370  -44.1850   -3.6720 C.3    88  THR88       0.0376
     64  N        -65.5500  -47.6580   -2.9060 N.am   89  GLU89      -0.1979
     65  CA       -65.9980  -48.8610   -2.2080 C.3    89  GLU89       0.1602
     66  C        -66.1380  -50.0090   -3.1850 C.2    89  GLU89       0.2287
     67  O        -66.1880  -51.1620   -2.7820 O.2    89  GLU89      -0.2864
     68  CB       -67.3210  -48.6450   -1.4560 C.3    89  GLU89       0.0415
     69  CG       -68.5790  -49.0050   -2.2550 C.3    89  GLU89       0.1163
     70  CD       -68.9670  -50.4990   -2.2050 C.2    89  GLU89       0.3649
     71  OE1      -69.3900  -51.0440   -3.2640 O.co2  89  GLU89      -0.2457
     72  OE2      -68.8680  -51.1120   -1.1100 O.co2  89  GLU89      -0.2457
     73  N        -64.0020  -51.2570   -4.8700 N.3    91  TYR91      -0.1227
     74  CA       -62.8340  -52.0850   -4.6730 C.3    91  TYR91       0.1736
     75  C        -62.1150  -51.8500   -3.3540 C.2    91  TYR91       0.2595
     76  O        -60.8850  -51.8880   -3.2890 O.2    91  TYR91      -0.2718
     77  CB       -61.8760  -51.8760   -5.8330 C.3    91  TYR91       0.0548
     78  CG       -61.4820  -50.4370   -6.0210 C.ar   91  TYR91      -0.0200
     79  CD1      -60.5550  -49.8300   -5.1720 C.ar   91  TYR91      -0.0009
     80  CD2      -62.0390  -49.6720   -7.0380 C.ar   91  TYR91      -0.0009
     81  CE1      -60.1910  -48.4940   -5.3330 C.ar   91  TYR91       0.0417
     82  CE2      -61.6790  -48.3430   -7.2060 C.ar   91  TYR91       0.0417
     83  CZ       -60.7540  -47.7630   -6.3500 C.ar   91  TYR91       0.1957
     84  OH       -60.3850  -46.4580   -6.5260 O.3    91  TYR91      -0.2866
     85  N        -62.8770  -51.6000   -2.2980 N.am   92  TYR92      -0.1976
     86  CA       -62.2830  -51.4020   -0.9810 C.3    92  TYR92       0.1639
     87  C        -62.2040  -52.8100   -0.3920 C.2    92  TYR92       0.2290
     88  O        -63.2260  -53.4720   -0.2200 O.2    92  TYR92      -0.2864
     89  CB       -63.1770  -50.5200   -0.1140 C.3    92  TYR92       0.0560
     90  CG       -62.5520  -50.1280    1.2030 C.ar   92  TYR92      -0.0198
     91  CD1      -63.2930  -50.1540    2.3820 C.ar   92  TYR92      -0.0009
     92  CD2      -61.2250  -49.7120    1.2700 C.ar   92  TYR92      -0.0009
     93  CE1      -62.7220  -49.7760    3.6020 C.ar   92  TYR92       0.0417
     94  CE2      -60.6500  -49.3300    2.4780 C.ar   92  TYR92       0.0417
     95  CZ       -61.4030  -49.3660    3.6390 C.ar   92  TYR92       0.1957
     96  OH       -60.8330  -48.9940    4.8310 O.3    92  TYR92      -0.2866
     97  N        -63.9680  -53.6210    2.9980 N.3    95  GLN95      -0.1245
     98  CA       -65.4070  -53.5650    2.8460 C.3    95  GLN95       0.1566
     99  C        -66.1450  -54.7490    3.4140 C.2    95  GLN95       0.2260
    100  O        -67.0430  -54.5950    4.2350 O.2    95  GLN95      -0.2867
    101  CB       -65.7720  -53.3990    1.3730 C.3    95  GLN95       0.0367
    102  CG       -67.2240  -53.0030    1.1590 C.3    95  GLN95       0.0905
    103  CD       -67.6590  -51.9070    2.1250 C.2    95  GLN95       0.2608
    104  OE1      -66.9910  -50.8670    2.2750 O.2    95  GLN95      -0.2717
    105  NE2      -68.7860  -52.1370    2.7920 N.am   95  GLN95      -0.0878
    106  N        -70.3380  -44.7700   16.0080 N.3   116  ASN116     -0.1240
    107  CA       -70.9400  -43.5080   15.6080 C.3   116  ASN116      0.1653
    108  C        -69.9460  -42.3630   15.6150 C.2   116  ASN116      0.2266
    109  O        -70.0550  -41.4380   14.8200 O.2   116  ASN116     -0.2867
    110  CB       -72.1310  -43.1660   16.4980 C.3   116  ASN116      0.1155
    111  CG       -73.4190  -43.7910   15.9950 C.2   116  ASN116      0.2627
    112  OD1      -73.6960  -44.9660   16.2540 O.2   116  ASN116     -0.2716
    113  ND2      -74.2050  -43.0110   15.2440 N.am  116  ASN116     -0.0877
    114  N        -68.5020  -42.7440   12.3440 N.3   119  GLU119     -0.1231
    115  CA       -69.4660  -42.3620   11.3350 C.3   119  GLU119      0.1699
    116  C        -69.5190  -40.8460   11.2650 C.2   119  GLU119      0.2592
    117  O        -69.5610  -40.2610   10.1850 O.2   119  GLU119     -0.2718
    118  CB       -70.8290  -42.9490   11.6970 C.3   119  GLU119      0.0402
    119  CG       -70.8490  -44.4970   11.7300 C.3   119  GLU119      0.1161
    120  CD       -72.2520  -45.1210   11.9510 C.2   119  GLU119      0.3649
    121  OE1      -73.0050  -44.6400   12.8360 O.co2 119  GLU119     -0.2457
    122  OE2      -72.5950  -46.1090   11.2490 O.co2 119  GLU119     -0.2457
    123  N        -69.4770  -40.2090   12.4250 N.am  120  ASN120     -0.1974
    124  CA       -69.5340  -38.7620   12.4780 C.3   120  ASN120      0.1688
    125  C        -68.3380  -38.1550   11.7950 C.2   120  ASN120      0.2292
    126  O        -68.4400  -37.0880   11.2050 O.2   120  ASN120     -0.2864
    127  CB       -69.6060  -38.2870   13.9250 C.3   120  ASN120      0.1181
    128  CG       -70.9810  -38.4890   14.5390 C.2   120  ASN120      0.2629
    129  OD1      -71.1170  -38.5380   15.7640 O.2   120  ASN120     -0.2716
    130  ND2      -72.0080  -38.6030   13.6930 N.am  120  ASN120     -0.0877
    131  N        -66.9030  -39.2630    9.1550 N.3   122  TYR122     -0.1227
    132  CA       -67.1560  -39.2880    7.7280 C.3   122  TYR122      0.1736
    133  C        -68.1920  -38.2350    7.3560 C.2   122  TYR122      0.2595
    134  O        -68.1700  -37.7170    6.2440 O.2   122  TYR122     -0.2718
    135  CB       -67.6140  -40.6830    7.2820 C.3   122  TYR122      0.0548
    136  CG       -66.5190  -41.7550    7.2830 C.ar  122  TYR122     -0.0200
    137  CD1      -66.5550  -42.8260    8.1850 C.ar  122  TYR122     -0.0009
    138  CD2      -65.4890  -41.7320    6.3380 C.ar  122  TYR122     -0.0009
    139  CE1      -65.6020  -43.8520    8.1350 C.ar  122  TYR122      0.0417
    140  CE2      -64.5270  -42.7500    6.2800 C.ar  122  TYR122      0.0417
    141  CZ       -64.5880  -43.8110    7.1770 C.ar  122  TYR122      0.1957
    142  OH       -63.6500  -44.8350    7.1050 O.3   122  TYR122     -0.2866
    143  N        -69.0930  -37.9060    8.2770 N.am  123  ILE123     -0.1980
    144  CA       -70.1040  -36.8930    7.9950 C.3   123  ILE123      0.1595
    145  C        -69.5160  -35.4720    7.9590 C.2   123  ILE123      0.2287
    146  O        -70.0080  -34.6020    7.2380 O.2   123  ILE123     -0.2864
    147  CB       -71.2520  -36.9470    9.0310 C.3   123  ILE123      0.0276
    148  CG1      -71.9180  -38.3200    8.9730 C.3   123  ILE123      0.0022
    149  CG2      -72.2860  -35.8780    8.7380 C.3   123  ILE123      0.0022
    150  CD1      -73.0700  -38.5090    9.9440 C.3   123  ILE123      0.0001
    151  N        -75.0160  -37.6690    3.8960 N.3   152  ALA152     -0.1231
    152  CA       -74.1710  -38.8100    4.2310 C.3   152  ALA152      0.1694
    153  C        -74.9260  -40.1340    4.1060 C.2   152  ALA152      0.2592
    154  O        -74.5400  -41.0030    3.3300 O.2   152  ALA152     -0.2718
    155  CB       -73.6010  -38.6560    5.6450 C.3   152  ALA152      0.0304
    156  N        -76.0130  -40.2790    4.8480 N.am  153  ASN153     -0.1974
    157  CA       -76.7830  -41.5140    4.8090 C.3   153  ASN153      0.1688
    158  C        -77.4630  -41.8170    3.4730 C.2   153  ASN153      0.2292
    159  O        -77.5510  -42.9780    3.0620 O.2   153  ASN153     -0.2864
    160  CB       -77.8120  -41.5060    5.9370 C.3   153  ASN153      0.1181
    161  CG       -77.1610  -41.4890    7.3020 C.2   153  ASN153      0.2629
    162  OD1      -76.3050  -42.3020    7.5810 O.2   153  ASN153     -0.2716
    163  ND2      -77.5670  -40.5640    8.1500 N.am  153  ASN153     -0.0877
    164  N        -74.6570  -43.0350    1.2890 N.3   156  ASN156     -0.1240
    165  CA       -74.2400  -44.3860    1.6380 C.3   156  ASN156      0.1653
    166  C        -75.2720  -45.4200    1.1970 C.2   156  ASN156      0.2266
    167  O        -74.9290  -46.5680    0.8950 O.2   156  ASN156     -0.2867
    168  CB       -73.9840  -44.5430    3.1300 C.3   156  ASN156      0.1155
    169  CG       -73.1850  -45.8190    3.4450 C.2   156  ASN156      0.2627
    170  OD1      -72.1550  -46.0950    2.8020 O.2   156  ASN156     -0.2716
    171  ND2      -73.6510  -46.6020    4.4300 N.am  156  ASN156     -0.0877
@<TRIPOS>BOND
     1    82    80   ar
     2    82    83   ar
     3    80    78   ar
     4    84    83    1
     5    83    81   ar
     6    78    77    1
     7    78    79   ar
     8    77    74    1
     9    81    79   ar
    10    57    58    1
    11    73    74    1
    12    74    75    1
    13    58    59    1
    14    58    61    1
    15    63    61    1
    16    59    60    2
    17    59    64   am
    18    75    76    2
    19    75    85   am
    20    71    70   ar
    21    66    67    2
    22    66    65    1
    23    51    52    1
    24    61    62    1
    25    64    65    1
    26    53    54    2
    27    53    52    1
    28    85    86    1
    29    69    70    1
    30    69    68    1
    31    65    68    1
    32    70    72   ar
    33    52    55    1
    34    49    48    2
    35    55    56    1
    36    86    87    1
    37    86    89    1
    38    45    44    2
    39    48    47    1
    40    48    50   am
    41    47    46    1
    42    41    40   ar
    43    41    39   ar
    44    87    88    2
    45    40    38   ar
    46    89    90    1
    47    44    43    1
    48    46    43    1
    49    39    37   ar
    50    43    42    1
    51   167   166    2
    52    38    35   ar
    53   102   101    1
    54   102   103    1
    55   166   165    1
    56    90    92   ar
    57    90    91   ar
    58    92    94   ar
    59   164   165    1
    60   101    98    1
    61   165   168    1
    62    37    35   ar
    63    37    36   ar
    64    35    33   ar
    65   103   104    2
    66   103   105   am
    67    91    93   ar
    68    94    95   ar
    69    31    30    2
    70   170   169    2
    71    98    97    1
    72    98    99    1
    73    36    34   ar
    74   159   158    2
    75   168   169    1
    76   154   153    2
    77    33    34   ar
    78    33    32    1
    79    99   100    2
    80   169   171   am
    81   158   157    1
    82    22    21    2
    83    93    95   ar
    84    95    96    1
    85    29    30    1
    86    29    32    1
    87    29    28    1
    88   151   152    1
    89     9     8    1
    90   153   152    1
    91   153   156   am
    92   152   155    1
    93    21    28   am
    94    21    20    1
    95     8     7    1
    96   157   156    1
    97   157   160    1
    98    17    16   ar
    99    23    20    1
   100    23    24    1
   101    20    19    1
   102    25    24    1
   103    25    26    1
   104    27    26    1
   105   160   161    1
   106    16    18   ar
   107    16    15    1
   108   134   133    2
   109     7     6    1
   110   140   138   ar
   111   140   141   ar
   112    13    12    2
   113   138   136   ar
   114     6     5    1
   115     4     3    2
   116   142   141    1
   117   141   139   ar
   118   146   145    2
   119   135   136    1
   120   135   132    1
   121   136   137   ar
   122   161   162    2
   123   161   163   am
   124    15    14    1
   125   133   132    1
   126   133   143   am
   127    14    11    1
   128    12    11    1
   129     3     2    1
   130    11    10    1
   131   132   131    1
   132     5     2    1
   133   145   144    1
   134   144   143    1
   135   144   147    1
   136   139   137   ar
   137     2     1    1
   138   149   147    1
   139   148   147    1
   140   148   150    1
   141   117   116    2
   142   126   125    2
   143   122   120   ar
   144   116   115    1
   145   116   123   am
   146   115   118    1
   147   115   114    1
   148   118   119    1
   149   119   120    1
   150   125   124    1
   151   120   121   ar
   152   123   124    1
   153   124   127    1
   154   130   128   am
   155   127   128    1
   156   128   129    2
   157   109   108    2
   158   113   111   am
   159   107   108    1
   160   107   106    1
   161   107   110    1
   162   111   112    2
   163   111   110    1
