@<TRIPOS>MOLECULE
tmp/1rpzB00.pdb
 207 196 0 0 0
SMALL
GASTEIGER

@<TRIPOS>ATOM
      1  N         28.7110   53.1650   45.2950 N.3    10  PRO10      -0.2116
      2  CA        29.4620   52.6340   46.4270 C.3    10  PRO10       0.1372
      3  C         30.6910   53.4930   46.6930 C.2    10  PRO10       0.2244
      4  O         31.4020   53.8970   45.7580 O.2    10  PRO10      -0.2868
      5  CB        29.8120   51.2400   45.9600 C.3    10  PRO10       0.0268
      6  CG        28.5740   50.8530   45.2510 C.3    10  PRO10       0.0207
      7  CD        28.2550   52.0710   44.4250 C.3    10  PRO10       0.0892
      8  N         28.1350   58.7680   50.9570 N.3    14  LYS14      -0.1245
      9  CA        26.8320   58.5450   51.5600 C.3    14  LYS14       0.1561
     10  C         26.8800   58.3530   53.0660 C.2    14  LYS14       0.2260
     11  O         26.4350   59.2180   53.8260 O.2    14  LYS14      -0.2867
     12  CB        26.1590   57.3210   50.9340 C.3    14  LYS14       0.0271
     13  CG        25.9090   57.4350   49.4470 C.3    14  LYS14       0.0035
     14  CD        25.1230   56.2400   48.8910 C.3    14  LYS14       0.0206
     15  CE        25.8370   54.9120   49.1020 C.3    14  LYS14       0.1093
     16  NZ        25.8150   54.4930   50.5420 N.3    14  LYS14      -0.1314
     17  N         20.7150   49.1360   53.8960 N.3    33  ARG33      -0.1231
     18  CA        20.5780   47.7210   53.5010 C.3    33  ARG33       0.1694
     19  C         21.7490   46.8220   53.8780 C.2    33  ARG33       0.2592
     20  O         21.5540   45.7480   54.4460 O.2    33  ARG33      -0.2718
     21  CB        20.3660   47.5830   51.9940 C.3    33  ARG33       0.0321
     22  CG        19.3910   48.5710   51.3880 C.3    33  ARG33       0.0489
     23  CD        18.7990   48.0350   50.1050 C.3    33  ARG33       0.2205
     24  NE        17.6290   47.2230   50.4000 N.pl3  33  ARG33      -0.0865
     25  CZ        17.4080   46.0280   49.8820 C.cat  33  ARG33       0.5346
     26  NH1       16.3160   45.3630   50.2110 N.pl3  33  ARG33       0.1354
     27  NH2       18.2870   45.5060   49.0430 N.pl3  33  ARG33       0.1354
     28  N         22.9580   47.2460   53.5180 N.am   34  ASP34      -0.1974
     29  CA        24.1740   46.4980   53.8280 C.3    34  ASP34       0.1709
     30  C         24.1900   46.0660   55.2990 C.2    34  ASP34       0.2293
     31  O         24.5240   44.9220   55.6140 O.2    34  ASP34      -0.2864
     32  CB        25.4110   47.3610   53.5230 C.3    34  ASP34       0.1436
     33  CG        25.7750   47.3840   52.0260 C.2    34  ASP34       0.3671
     34  OD1       26.3810   48.3970   51.5870 O.co2  34  ASP34      -0.2456
     35  OD2       25.4730   46.3910   51.3070 O.co2  34  ASP34      -0.2456
     36  N         21.6780   43.4580   55.7590 N.3    37  ARG37      -0.1245
     37  CA        22.1820   42.2970   55.0460 C.3    37  ARG37       0.1563
     38  C         23.2040   41.5710   55.9090 C.2    37  ARG37       0.2260
     39  O         23.1420   40.3530   56.0840 O.2    37  ARG37      -0.2867
     40  CB        22.8270   42.7430   53.7450 C.3    37  ARG37       0.0307
     41  CG        22.3140   42.0240   52.5320 C.3    37  ARG37       0.0489
     42  CD        21.7260   42.9670   51.4880 C.3    37  ARG37       0.2205
     43  NE        22.5890   44.1170   51.2520 N.pl3  37  ARG37      -0.0865
     44  CZ        22.4060   45.0370   50.3060 C.cat  37  ARG37       0.5346
     45  NH1       23.2690   46.0340   50.2120 N.pl3  37  ARG37       0.1354
     46  NH2       21.3870   44.9720   49.4470 N.pl3  37  ARG37       0.1354
     47  N         25.8450   36.7060   50.4130 N.3    49  LYS49      -0.1231
     48  CA        25.4880   36.1780   49.1050 C.3    49  LYS49       0.1693
     49  C         24.0730   36.5580   48.6930 C.2    49  LYS49       0.2592
     50  O         23.0920   36.1640   49.3310 O.2    49  LYS49      -0.2718
     51  CB        25.6680   34.6600   49.0440 C.3    49  LYS49       0.0285
     52  CG        26.7050   34.2020   47.9970 C.3    49  LYS49       0.0035
     53  CD        27.3480   35.3750   47.2020 C.3    49  LYS49       0.0206
     54  CE        26.3880   36.0130   46.1740 C.3    49  LYS49       0.1093
     55  NZ        26.9670   37.2160   45.5040 N.3    49  LYS49      -0.1314
     56  N         23.9860   37.3360   47.6160 N.am   50  TYR50      -0.1976
     57  CA        22.7100   37.8080   47.0940 C.3    50  TYR50       0.1639
     58  C         21.6690   36.6950   46.9940 C.2    50  TYR50       0.2290
     59  O         21.9450   35.5930   46.5140 O.2    50  TYR50      -0.2864
     60  CB        22.9050   38.4520   45.7110 C.3    50  TYR50       0.0560
     61  CG        21.6320   39.0140   45.0870 C.ar   50  TYR50      -0.0198
     62  CD1       21.0730   40.2140   45.5380 C.ar   50  TYR50      -0.0009
     63  CD2       20.9840   38.3420   44.0440 C.ar   50  TYR50      -0.0009
     64  CE1       19.8990   40.7300   44.9600 C.ar   50  TYR50       0.0417
     65  CE2       19.8120   38.8510   43.4660 C.ar   50  TYR50       0.0417
     66  CZ        19.2780   40.0420   43.9280 C.ar   50  TYR50       0.1957
     67  OH        18.1320   40.5410   43.3530 O.3    50  TYR50      -0.2866
     68  N         17.1540   36.6300   46.6190 N.3    52  LYS52      -0.1245
     69  CA        15.8960   37.3400   46.5970 C.3    52  LYS52       0.1561
     70  C         15.2700   37.2540   47.9760 C.2    52  LYS52       0.2260
     71  O         14.9290   38.2730   48.5690 O.2    52  LYS52      -0.2867
     72  CB        14.9870   36.7330   45.5320 C.3    52  LYS52       0.0271
     73  CG        15.7250   36.4640   44.2340 C.3    52  LYS52       0.0035
     74  CD        14.7960   36.0460   43.1150 C.3    52  LYS52       0.0206
     75  CE        14.0190   37.2420   42.5780 C.3    52  LYS52       0.1093
     76  NZ        13.1340   36.8850   41.4270 N.3    52  LYS52      -0.1314
     77  N         16.8710   39.6900   50.2290 N.3    55  GLU55      -0.1231
     78  CA        16.6090   41.0660   49.8040 C.3    55  GLU55       0.1699
     79  C         15.2050   41.4450   50.2210 C.2    55  GLU55       0.2592
     80  O         14.9820   42.5300   50.7530 O.2    55  GLU55      -0.2718
     81  CB        16.7480   41.2100   48.2890 C.3    55  GLU55       0.0402
     82  CG        18.1640   41.0350   47.7680 C.3    55  GLU55       0.1161
     83  CD        19.1510   42.0010   48.4010 C.2    55  GLU55       0.3649
     84  OE1       18.7440   43.1420   48.6940 O.co2  55  GLU55      -0.2457
     85  OE2       20.3300   41.6260   48.5940 O.co2  55  GLU55      -0.2457
     86  N         14.2660   40.5330   49.9740 N.am   56  GLY56      -0.1957
     87  CA        12.8830   40.7570   50.3540 C.3    56  GLY56       0.1869
     88  C         12.7940   41.0740   51.8360 C.2    56  GLY56       0.2309
     89  O         12.1230   42.0250   52.2360 O.2    56  GLY56      -0.2863
     90  N         14.3900   44.6260   52.5080 N.3    59  THR59      -0.1218
     91  CA        13.4450   45.6540   52.0710 C.3    59  THR59       0.1862
     92  C         12.3990   45.7700   53.1570 C.2    59  THR59       0.2287
     93  O         12.1010   46.8550   53.6480 O.2    59  THR59      -0.2866
     94  CB        12.7110   45.2490   50.7890 C.3    59  THR59       0.1770
     95  OG1       13.6430   45.1190   49.7160 O.3    59  THR59      -0.2211
     96  CG2       11.6870   46.2900   50.4220 C.3    59  THR59       0.0375
     97  N         21.2920   54.2100   51.1850 N.3    82  ASP82      -0.1225
     98  CA        21.7400   53.2170   50.2070 C.3    82  ASP82       0.1805
     99  C         22.2600   53.9110   48.9530 C.2    82  ASP82       0.2598
    100  O         22.6020   55.0940   48.9760 O.2    82  ASP82      -0.2718
    101  CB        20.5940   52.2910   49.8130 C.3    82  ASP82       0.1424
    102  CG        19.9740   51.6050   50.9990 C.2    82  ASP82       0.3668
    103  OD1       18.7560   51.3240   50.9310 O.co2  82  ASP82      -0.2456
    104  OD2       20.6970   51.3390   51.9880 O.co2  82  ASP82      -0.2456
    105  N         22.3230   53.1630   47.8590 N.am   83  THR83      -0.1939
    106  CA        22.7810   53.7190   46.5990 C.3    83  THR83       0.2028
    107  C         21.5800   54.4280   45.9780 C.2    83  THR83       0.2642
    108  O         21.7120   55.4490   45.3000 O.2    83  THR83      -0.2714
    109  CB        23.2900   52.6000   45.6390 C.3    83  THR83       0.1808
    110  OG1       22.2420   51.6550   45.3760 O.3    83  THR83      -0.2208
    111  CG2       24.4510   51.8750   46.2590 C.3    83  THR83       0.0379
    112  N         20.4070   53.8640   46.2510 N.am   84  ASN84      -0.1957
    113  CA        19.1290   54.3540   45.7500 C.3    84  ASN84       0.1819
    114  C         19.1280   54.7300   44.2880 C.2    84  ASN84       0.2621
    115  O         18.4300   55.6510   43.8780 O.2    84  ASN84      -0.2715
    116  CB        18.6530   55.5230   46.5870 C.3    84  ASN84       0.1195
    117  CG        18.2060   55.0890   47.9480 C.2    84  ASN84       0.2630
    118  OD1       17.5020   54.0880   48.0850 O.2    84  ASN84      -0.2716
    119  ND2       18.6030   55.8340   48.9700 N.am   84  ASN84      -0.0877
    120  N         19.9100   54.0010   43.5020 N.am   85  LEU85      -0.1963
    121  CA        19.9940   54.2550   42.0820 C.3    85  LEU85       0.1728
    122  C         18.9770   53.4320   41.2940 C.2    85  LEU85       0.2616
    123  O         19.0090   53.4000   40.0730 O.2    85  LEU85      -0.2715
    124  CB        21.4110   53.9820   41.5840 C.3    85  LEU85       0.0311
    125  CG        22.4830   54.8740   42.2050 C.3    85  LEU85       0.0022
    126  CD1       23.8090   54.5490   41.5640 C.3    85  LEU85       0.0001
    127  CD2       22.1500   56.3470   41.9960 C.3    85  LEU85       0.0001
    128  N         18.0720   52.7600   41.9880 N.am   86  ASN86      -0.1972
    129  CA        17.0460   51.9930   41.2990 C.3    86  ASN86       0.1688
    130  C         15.7890   52.8620   41.2950 C.2    86  ASN86       0.2292
    131  O         15.1610   53.0560   42.3380 O.2    86  ASN86      -0.2864
    132  CB        16.7700   50.6840   42.0350 C.3    86  ASN86       0.1181
    133  CG        15.7080   49.8540   41.3530 C.2    86  ASN86       0.2629
    134  OD1       14.5670   50.2800   41.2060 O.2    86  ASN86      -0.2716
    135  ND2       16.0820   48.6640   40.9270 N.am   86  ASN86      -0.0877
    136  N         12.8200   52.2990   40.0700 N.3    88  GLU88      -0.1231
    137  CA        11.6690   51.4830   40.4170 C.3    88  GLU88       0.1699
    138  C         11.3660   51.6060   41.9140 C.2    88  GLU88       0.2592
    139  O         10.2240   51.8160   42.3180 O.2    88  GLU88      -0.2718
    140  CB        11.9760   50.0280   40.0580 C.3    88  GLU88       0.0402
    141  CG        10.9570   49.0180   40.5320 C.3    88  GLU88       0.1161
    142  CD         9.7230   49.0000   39.6650 C.2    88  GLU88       0.3649
    143  OE1        9.8840   48.8620   38.4310 O.co2  88  GLU88      -0.2457
    144  OE2        8.6020   49.1140   40.2130 O.co2  88  GLU88      -0.2457
    145  N         12.4110   51.4900   42.7250 N.am   89  ARG89      -0.1980
    146  CA        12.2930   51.5490   44.1800 C.3    89  ARG89       0.1597
    147  C         12.1960   52.9650   44.6860 C.2    89  ARG89       0.2287
    148  O         11.4000   53.2640   45.5690 O.2    89  ARG89      -0.2864
    149  CB        13.5040   50.8700   44.8320 C.3    89  ARG89       0.0334
    150  CG        13.7590   51.3110   46.2480 C.3    89  ARG89       0.0492
    151  CD        12.7260   50.7820   47.2210 C.3    89  ARG89       0.2205
    152  NE        13.0050   49.3990   47.5970 N.pl3  89  ARG89      -0.0865
    153  CZ        12.6490   48.3380   46.8830 C.cat  89  ARG89       0.5346
    154  NH1       11.9820   48.4920   45.7450 N.pl3  89  ARG89       0.1354
    155  NH2       12.9730   47.1220   47.3010 N.pl3  89  ARG89       0.1354
    156  N         38.8020   49.8930   49.1800 N.3   123  ARG123     -0.1245
    157  CA        37.6860   49.6000   50.0730 C.3   123  ARG123      0.1563
    158  C         37.7870   48.2460   50.7860 C.2   123  ARG123      0.2260
    159  O         37.0180   47.9520   51.7090 O.2   123  ARG123     -0.2867
    160  CB        36.3920   49.6800   49.2700 C.3   123  ARG123      0.0307
    161  CG        35.3880   50.6610   49.8190 C.3   123  ARG123      0.0489
    162  CD        34.8050   50.1280   51.1020 C.3   123  ARG123      0.2205
    163  NE        33.6380   50.8750   51.5530 N.pl3 123  ARG123     -0.0865
    164  CZ        32.6180   51.2290   50.7740 C.cat 123  ARG123      0.5346
    165  NH1       31.6020   51.8970   51.2950 N.pl3 123  ARG123      0.1354
    166  NH2       32.6140   50.9340   49.4750 N.pl3 123  ARG123      0.1354
    167  N         34.7290   45.6570   51.8500 N.3   126  LYS126     -0.1231
    168  CA        33.4960   46.3740   51.5410 C.3   126  LYS126      0.1693
    169  C         33.5200   46.7900   50.0690 C.2   126  LYS126      0.2592
    170  O         32.6040   47.4540   49.5750 O.2   126  LYS126     -0.2718
    171  CB        33.3570   47.6170   52.4330 C.3   126  LYS126      0.0285
    172  CG        32.8580   47.3390   53.8490 C.3   126  LYS126      0.0035
    173  CD        32.7730   48.6090   54.6980 C.3   126  LYS126      0.0206
    174  CE        34.1180   48.9690   55.3470 C.3   126  LYS126      0.1093
    175  NZ        35.2290   49.3250   54.3980 N.3   126  LYS126     -0.1314
    176  N         34.5740   46.3940   49.3640 N.am  127  ALA127     -0.1966
    177  CA        34.6940   46.7340   47.9530 C.3   127  ALA127      0.1728
    178  C         33.6710   45.9670   47.1260 C.2   127  ALA127      0.2616
    179  O         33.0970   44.9700   47.5760 O.2   127  ALA127     -0.2715
    180  CB        36.0900   46.4490   47.4560 C.3   127  ALA127      0.0334
    181  N         33.4600   46.4320   45.9010 N.am  128  VAL128     -0.1964
    182  CA        32.4740   45.8280   45.0220 C.3   128  VAL128      0.1712
    183  C         33.0570   45.6000   43.6060 C.2   128  VAL128      0.2458
    184  O         33.8800   46.3760   43.1400 O.2   128  VAL128     -0.2730
    185  CB        31.2090   46.7550   45.0120 C.3   128  VAL128      0.0289
    186  CG1       31.3780   47.8940   44.0030 C.3   128  VAL128      0.0023
    187  CG2       29.9740   45.9470   44.7720 C.3   128  VAL128      0.0023
    188  N         32.6540   44.5110   42.9260 N.am  129  PRO129     -0.2727
    189  CA        33.1340   44.1830   41.5730 C.3   129  PRO129      0.1402
    190  C         32.9810   45.3100   40.5480 C.2   129  PRO129      0.2269
    191  O         31.9900   46.0310   40.5550 O.2   129  PRO129     -0.2865
    192  CB        32.3260   42.9220   41.2010 C.3   129  PRO129      0.0296
    193  CG        31.1960   42.8880   42.1750 C.3   129  PRO129      0.0237
    194  CD        31.7800   43.4420   43.4390 C.3   129  PRO129      0.0939
    195  N         29.6180   45.8610   38.7360 N.3   132  VAL132     -0.1245
    196  CA        28.5350   46.4230   39.5240 C.3   132  VAL132      0.1561
    197  C         28.8340   47.9140   39.6880 C.2   132  VAL132      0.2260
    198  O         27.9500   48.7550   39.5240 O.2   132  VAL132     -0.2867
    199  CB        28.3800   45.7430   40.9190 C.3   132  VAL132      0.0252
    200  CG1       28.0300   44.2900   40.7580 C.3   132  VAL132      0.0019
    201  CG2       29.6350   45.8890   41.7090 C.3   132  VAL132      0.0019
    202  N         27.9970   49.3750   36.4210 N.3   135  SER135     -0.1217
    203  CA        26.5550   49.3200   36.2630 C.3   135  SER135      0.1889
    204  C         25.8940   50.4070   37.1150 C.2   135  SER135      0.2288
    205  O         24.9560   51.0720   36.6730 O.2   135  SER135     -0.2866
    206  CB        26.0660   47.9540   36.7030 C.3   135  SER135      0.2089
    207  OG        24.7230   47.7880   36.3510 O.3   135  SER135     -0.2183
@<TRIPOS>BOND
     1   203   202    1
     2   203   206    1
     3   203   204    1
     4   207   206    1
     5   205   204    2
     6   143   142   ar
     7   195   196    1
     8   196   197    1
     9   196   199    1
    10   198   197    2
    11   142   144   ar
    12   142   141    1
    13   140   137    1
    14   140   141    1
    15   136   137    1
    16   123   122    2
    17   137   138    1
    18   190   191    2
    19   190   189    1
    20   200   199    1
    21   199   201    1
    22   135   133   am
    23   192   189    1
    24   192   193    1
    25   134   133    2
    26   122   128   am
    27   122   121    1
    28   130   129    1
    29   130   131    2
    30   129   128    1
    31   129   132    1
    32   133   132    1
    33    76    75    1
    34   126   125    1
    35   189   188    1
    36   124   121    1
    37   124   125    1
    38   138   139    2
    39   138   145   am
    40   127   125    1
    41   121   120    1
    42   193   194    1
    43    75    74    1
    44   145   146    1
    45   188   194    1
    46   188   183   am
    47    74    73    1
    48   184   183    2
    49    67    66    1
    50    65    66   ar
    51    65    63   ar
    52   120   114   am
    53   183   182    1
    54   115   114    2
    55    66    64   ar
    56   186   185    1
    57    63    61   ar
    58   146   147    1
    59   146   149    1
    60    73    72    1
    61   114   113    1
    62     7     6    1
    63     7     1    1
    64   147   148    2
    65   187   185    1
    66   149   150    1
    67    64    62   ar
    68   185   182    1
    69   182   181    1
    70    61    62   ar
    71    61    60    1
    72     6     5    1
    73     1     2    1
    74   108   107    2
    75   110   109    1
    76    55    54    1
    77    72    69    1
    78   109   111    1
    79   109   106    1
    80    60    57    1
    81   154   153    1
    82   113   112    1
    83   113   116    1
    84     4     3    2
    85   181   178   am
    86     5     2    1
    87   107   112   am
    88   107   106    1
    89    54    53    1
    90   150   151    1
    91     2     3    1
    92    59    58    2
    93   116   117    1
    94    69    68    1
    95    69    70    1
    96   106   105    1
    97   153   155    1
    98   153   152    2
    99    58    57    1
   100    57    56    1
   101   178   179    2
   102   178   177    1
   103    53    52    1
   104   151   152    1
   105   180   177    1
   106    56    49   am
   107    82    81    1
   108    82    83    1
   109   105    99   am
   110   117   118    2
   111   117   119   am
   112   177   176    1
   113    70    71    2
   114    52    51    1
   115    81    78    1
   116    83    85   ar
   117    83    84   ar
   118    49    48    1
   119    49    50    2
   120    14    15    1
   121    14    13    1
   122    99   100    2
   123    99    98    1
   124    27    25    1
   125    51    48    1
   126    15    16    1
   127    48    47    1
   128   156   157    1
   129   160   161    1
   130   160   157    1
   131   176   169   am
   132    13    12    1
   133    46    44    1
   134   166   164    1
   135   170   169    2
   136    95    94    1
   137    78    79    1
   138    78    77    1
   139   101    98    1
   140   101   102    1
   141   161   162    1
   142    25    26    1
   143    25    24    2
   144    86    79   am
   145    86    87    1
   146   169   168    1
   147   157   158    1
   148    23    24    1
   149    23    22    1
   150    98    97    1
   151    45    44    1
   152    79    80    2
   153    44    43    2
   154    87    88    1
   155    96    94    1
   156   164   165    1
   157   164   163    2
   158   158   159    2
   159    94    91    1
   160   103   102   ar
   161    12     9    1
   162     8     9    1
   163   102   104   ar
   164   162   163    1
   165    43    42    1
   166    35    33   ar
   167    22    21    1
   168    42    41    1
   169   168   167    1
   170   168   171    1
   171     9    10    1
   172    34    33   ar
   173    88    89    2
   174    21    18    1
   175    33    32    1
   176    91    90    1
   177    91    92    1
   178   171   172    1
   179    41    40    1
   180    10    11    2
   181    92    93    2
   182    18    19    1
   183    18    17    1
   184    28    29    1
   185    28    19   am
   186    32    29    1
   187    40    37    1
   188    29    30    1
   189   172   173    1
   190    19    20    2
   191   175   174    1
   192   173   174    1
   193    37    36    1
   194    37    38    1
   195    30    31    2
   196    38    39    2
