@<TRIPOS>MOLECULE
tmp/1rq2A00.pdb
 86 80 0 0 0
SMALL
GASTEIGER

@<TRIPOS>ATOM
      1  N         -1.5000   43.1250    9.4700 N.3     9  ILE9       -0.1231
      2  CA        -1.7360   43.6870    8.1380 C.3     9  ILE9        0.1692
      3  C         -2.8090   42.8710    7.4010 C.2     9  ILE9        0.2593
      4  O         -2.7700   41.6150    7.4170 O.2     9  ILE9       -0.2718
      5  CB        -0.4390   43.8070    7.3410 C.3     9  ILE9        0.0266
      6  CG1       -0.7240   44.4780    5.9610 C.3     9  ILE9        0.0019
      7  CG2        0.3490   42.4530    7.2920 C.3     9  ILE9        0.0020
      8  CD1        0.4790   45.1250    5.3450 C.3     9  ILE9        0.0001
      9  N         -3.7820   43.5910    6.8330 N.am   10  GLY10      -0.1942
     10  CA        -4.9510   42.9650    6.2620 C.3    10  GLY10       0.2014
     11  C         -5.9810   42.6850    7.3190 C.2    10  GLY10       0.2639
     12  O         -5.7050   42.7270    8.5180 O.2    10  GLY10      -0.2714
     13  N         -7.1980   42.3710    6.8860 N.am   11  GLY11      -0.1939
     14  CA        -8.2600   42.1880    7.8580 C.3    11  GLY11       0.2014
     15  C         -7.9790   41.1130    8.8810 C.2    11  GLY11       0.2639
     16  O         -8.3110   41.2520   10.0640 O.2    11  GLY11      -0.2714
     17  N         -7.4240   40.0030    8.4280 N.am   12  GLY12      -0.1954
     18  CA        -7.1060   38.9300    9.3370 C.3    12  GLY12       0.1869
     19  C         -6.0790   39.3420   10.3980 C.2    12  GLY12       0.2309
     20  O         -6.2800   39.0570   11.5670 O.2    12  GLY12      -0.2863
     21  N         -4.1220   48.3730    6.9040 N.3    34  ASN34      -0.1225
     22  CA        -5.1300   47.7050    6.0750 C.3    34  ASN34       0.1785
     23  C         -5.5190   48.6280    4.9340 C.2    34  ASN34       0.2598
     24  O         -5.1820   49.8240    4.9350 O.2    34  ASN34      -0.2718
     25  CB        -6.3660   47.3270    6.9180 C.3    34  ASN34       0.1169
     26  CG        -7.1880   46.1850    6.3100 C.2    34  ASN34       0.2627
     27  OD1       -6.8820   45.6480    5.2350 O.2    34  ASN34      -0.2716
     28  ND2       -8.2350   45.8060    7.0090 N.am   34  ASN34      -0.0877
     29  N         -6.2200   48.0600    3.9600 N.am   35  THR35      -0.1939
     30  CA        -6.7350   48.8100    2.8270 C.3    35  THR35       0.2028
     31  C         -8.1930   49.1720    3.0560 C.2    35  THR35       0.2642
     32  O         -8.9620   49.3800    2.1020 O.2    35  THR35      -0.2714
     33  CB        -6.5740   47.9860    1.5330 C.3    35  THR35       0.1808
     34  OG1       -7.0060   46.6320    1.7730 O.3    35  THR35      -0.2208
     35  CG2       -5.1130   47.8490    1.1630 C.3    35  THR35       0.0379
     36  N         -8.5880   49.2370    4.3180 N.am   36  ASP36      -0.1971
     37  CA        -9.9640   49.5190    4.6660 C.3    36  ASP36       0.1709
     38  C        -10.0690   50.4140    5.8860 C.2    36  ASP36       0.2293
     39  O         -9.8440   49.9660    7.0300 O.2    36  ASP36      -0.2864
     40  CB       -10.7310   48.2160    4.8940 C.3    36  ASP36       0.1436
     41  CG       -12.1550   48.4610    5.3270 C.2    36  ASP36       0.3671
     42  OD1      -12.8350   49.3190    4.7030 O.co2  36  ASP36      -0.2456
     43  OD2      -12.6730   47.8480    6.2850 O.co2  36  ASP36      -0.2456
     44  N        -10.5680   42.7960   -2.5710 N.3    57  GLY57      -0.1210
     45  CA       -10.9200   41.8230   -3.6020 C.3    57  GLY57       0.1956
     46  C         -9.9350   40.6650   -3.6710 C.2    57  GLY57       0.2611
     47  O         -9.8230   39.9950   -4.6990 O.2    57  GLY57      -0.2717
     48  N         -9.2310   40.4530   -2.5580 N.am   58  ALA58      -0.1979
     49  CA        -8.2730   39.3600   -2.3400 C.3    58  ALA58       0.1597
     50  C         -7.1870   39.2170   -3.3880 C.2    58  ALA58       0.2287
     51  O         -6.7300   38.1120   -3.6580 O.2    58  ALA58      -0.2864
     52  CB        -8.9910   38.0220   -2.1000 C.3    58  ALA58       0.0319
     53  N         -3.6470   36.8920    8.1980 N.3    89  GLY89      -0.1225
     54  CA        -4.2900   35.6630    7.7370 C.3    89  GLY89       0.1811
     55  C         -3.9290   35.5180    6.2730 C.2    89  GLY89       0.2280
     56  O         -4.3890   36.2970    5.4320 O.2    89  GLY89      -0.2866
     57  N         -5.7340   36.1810    1.5940 N.3    92  GLY92      -0.1210
     58  CA        -6.4310   37.3760    1.1170 C.3    92  GLY92       0.1956
     59  C         -5.4750   38.2030    0.2450 C.2    92  GLY92       0.2612
     60  O         -4.4680   37.7120   -0.2280 O.2    92  GLY92      -0.2717
     61  N         -5.7950   39.4780    0.0400 N.am   93  GLY93      -0.1942
     62  CA        -4.9740   40.3250   -0.7990 C.3    93  GLY93       0.2014
     63  C         -4.0340   41.1790    0.0400 C.2    93  GLY93       0.2640
     64  O         -2.8490   41.2160   -0.2090 O.2    93  GLY93      -0.2714
     65  N         -4.5780   41.8640    1.0380 N.am   94  THR94      -0.1936
     66  CA        -3.7780   42.8440    1.7870 C.3    94  THR94       0.2028
     67  C         -2.7070   42.1710    2.6490 C.2    94  THR94       0.2642
     68  O         -1.5310   42.5290    2.5770 O.2    94  THR94      -0.2714
     69  CB        -4.7190   43.6900    2.6180 C.3    94  THR94       0.1808
     70  OG1       -5.5500   44.4430    1.7210 O.3    94  THR94      -0.2208
     71  CG2       -3.9220   44.7960    3.4240 C.3    94  THR94       0.0379
     72  N         -3.1120   41.2060    3.4790 N.am   95  GLY95      -0.1954
     73  CA        -2.1260   40.4380    4.2630 C.3    95  GLY95       0.1869
     74  C         -1.1280   39.6920    3.4080 C.2    95  GLY95       0.2309
     75  O          0.1120   39.8030    3.5600 O.2    95  GLY95      -0.2863
     76  N         -7.5330   30.9020   -2.5790 N.3   128  ARG128     -0.1245
     77  CA        -6.9800   31.4190   -1.3150 C.3   128  ARG128      0.1563
     78  C         -5.8220   30.5820   -0.8060 C.2   128  ARG128      0.2260
     79  O         -4.8140   31.1110   -0.3050 O.2   128  ARG128     -0.2867
     80  CB        -8.0460   31.5980   -0.2290 C.3   128  ARG128      0.0307
     81  CG        -8.9170   32.8120   -0.4810 C.3   128  ARG128      0.0489
     82  CD       -10.0260   32.9970    0.5020 C.3   128  ARG128      0.2205
     83  NE       -10.6780   34.2500    0.1560 N.pl3 128  ARG128     -0.0865
     84  CZ       -10.3370   35.4410    0.6560 C.cat 128  ARG128      0.5346
     85  NH1       -9.4040   35.5540    1.6000 N.pl3 128  ARG128      0.1354
     86  NH2      -10.9840   36.5090    0.2240 N.pl3 128  ARG128      0.1354
@<TRIPOS>BOND
     1    47    46    2
     2    46    45    1
     3    46    48   am
     4    51    50    2
     5    45    44    1
     6    50    49    1
     7    76    77    1
     8    48    49    1
     9    49    52    1
    10    77    78    1
    11    77    80    1
    12    78    79    2
    13    62    61    1
    14    62    63    1
    15    81    80    1
    16    81    82    1
    17    60    59    2
    18    64    63    2
    19    61    59   am
    20    63    65   am
    21    83    82    1
    22    83    84    2
    23    86    84    1
    24    59    58    1
    25    84    85    1
    26    65    66    1
    27    58    57    1
    28    35    33    1
    29    33    34    1
    30    33    30    1
    31    70    69    1
    32    66    69    1
    33    66    67    1
    34    32    31    2
    35    68    67    2
    36    69    71    1
    37    67    72   am
    38    30    31    1
    39    30    29    1
    40    31    36   am
    41    74    75    2
    42    74    73    1
    43    72    73    1
    44    29    23   am
    45    36    37    1
    46    37    40    1
    47    37    38    1
    48    42    41   ar
    49    40    41    1
    50    23    24    2
    51    23    22    1
    52    27    26    2
    53    41    43   ar
    54     8     6    1
    55    56    55    2
    56    38    39    2
    57     6     5    1
    58    22    21    1
    59    22    25    1
    60    10     9    1
    61    10    11    1
    62    55    54    1
    63    26    25    1
    64    26    28   am
    65     9     3   am
    66    13    11   am
    67    13    14    1
    68     7     5    1
    69    11    12    2
    70     5     2    1
    71     3     4    2
    72     3     2    1
    73    54    53    1
    74    14    15    1
    75     2     1    1
    76    17    15   am
    77    17    18    1
    78    15    16    2
    79    18    19    1
    80    19    20    2
