@<TRIPOS>MOLECULE
tmp/1rq5A00.pdb
 258 255 0 0 0
SMALL
GASTEIGER

@<TRIPOS>ATOM
      1  N         66.1190   -0.2580  -63.9590 N.3   176  ASP176     -0.1225
      2  CA        64.6920   -0.4990  -63.8660 C.3   176  ASP176      0.1805
      3  C         63.9850   -1.0690  -65.0760 C.2   176  ASP176      0.2597
      4  O         63.2140   -2.0240  -64.9700 O.2   176  ASP176     -0.2718
      5  CB        64.0100    0.7880  -63.4590 C.3   176  ASP176      0.1424
      6  CG        62.6630    0.5510  -62.8640 C.2   176  ASP176      0.3668
      7  OD1       61.6680    0.8140  -63.5700 O.co2 176  ASP176     -0.2456
      8  OD2       62.6040    0.0990  -61.6930 O.co2 176  ASP176     -0.2456
      9  N         64.2360   -0.4600  -66.2250 N.am  177  ALA177     -0.1979
     10  CA        63.6140   -0.8730  -67.4610 C.3   177  ALA177      0.1597
     11  C         64.5080   -0.4640  -68.6230 C.2   177  ALA177      0.2287
     12  O         65.7240   -0.6570  -68.5770 O.2   177  ALA177     -0.2864
     13  CB        62.2620   -0.2140  -67.5770 C.3   177  ALA177      0.0319
     14  N         65.4520    2.2650  -69.3110 N.3   179  ASP179     -0.1239
     15  CA        66.2900    3.3850  -68.9150 C.3   179  ASP179      0.1674
     16  C         67.4450    2.9270  -68.0140 C.2   179  ASP179      0.2266
     17  O         67.6070    1.7340  -67.7380 O.2   179  ASP179     -0.2867
     18  CB        65.4430    4.4360  -68.1850 C.3   179  ASP179      0.1410
     19  CG        64.9160    3.9350  -66.8490 C.2   179  ASP179      0.3668
     20  OD1       64.2930    2.8560  -66.8290 O.co2 179  ASP179     -0.2456
     21  OD2       65.1310    4.6100  -65.8190 O.co2 179  ASP179     -0.2456
     22  N         65.6440    2.6290  -59.0280 N.3   183  TYR183     -0.1241
     23  CA        64.6200    3.0610  -58.0890 C.3   183  TYR183      0.1605
     24  C         64.4060    2.0970  -56.9280 C.2   183  TYR183      0.2264
     25  O         64.2260    0.9160  -57.1560 O.2   183  TYR183     -0.2867
     26  CB        63.3020    3.2390  -58.8630 C.3   183  TYR183      0.0534
     27  CG        63.4560    3.9350  -60.2200 C.ar  183  TYR183     -0.0201
     28  CD1       64.1300    3.3160  -61.2800 C.ar  183  TYR183     -0.0009
     29  CD2       62.9160    5.2070  -60.4460 C.ar  183  TYR183     -0.0009
     30  CE1       64.2620    3.9460  -62.5410 C.ar  183  TYR183      0.0417
     31  CE2       63.0390    5.8460  -61.7030 C.ar  183  TYR183      0.0417
     32  CZ        63.7090    5.2090  -62.7500 C.ar  183  TYR183      0.1957
     33  OH        63.7650    5.8180  -63.9990 O.3   183  TYR183     -0.2866
     34  N         66.3200   13.0760  -69.7140 N.3   266  TRP266     -0.1227
     35  CA        66.2210   11.8740  -70.5380 C.3   266  TRP266      0.1737
     36  C         67.1670   11.7860  -71.7140 C.2   266  TRP266      0.2596
     37  O         67.3700   12.7580  -72.4510 O.2   266  TRP266     -0.2718
     38  CB        64.8050   11.7030  -71.0790 C.3   266  TRP266      0.0564
     39  CG        63.8210   11.2950  -70.0720 C.ar  266  TRP266      0.0003
     40  CD1       62.7990   12.0460  -69.5910 C.ar  266  TRP266      0.0946
     41  CD2       63.7200   10.0170  -69.4350 C.ar  266  TRP266      0.0152
     42  NE1       62.0580   11.3180  -68.6950 N.ar  266  TRP266     -0.2442
     43  CE2       62.6020   10.0680  -68.5810 C.ar  266  TRP266      0.0810
     44  CE3       64.4650    8.8340  -69.5030 C.ar  266  TRP266      0.0012
     45  CZ2       62.2050    8.9820  -67.8010 C.ar  266  TRP266      0.0191
     46  CZ3       64.0690    7.7560  -68.7240 C.ar  266  TRP266      0.0001
     47  CH2       62.9480    7.8390  -67.8860 C.ar  266  TRP266      0.0015
     48  N         67.7460   10.6050  -71.8910 N.am  267  THR267     -0.1939
     49  CA        68.6380   10.3710  -73.0160 C.3   267  THR267      0.2028
     50  C         67.7700    9.6370  -74.0370 C.2   267  THR267      0.2642
     51  O         66.6680    9.2170  -73.7100 O.2   267  THR267     -0.2714
     52  CB        69.8100    9.4730  -72.6380 C.3   267  THR267      0.1808
     53  OG1       69.3000    8.1930  -72.2560 O.3   267  THR267     -0.2208
     54  CG2       70.6230   10.0910  -71.5050 C.3   267  THR267      0.0379
     55  N         68.2490    9.4790  -75.2640 N.am  268  ALA268     -0.1963
     56  CA        67.4510    8.7970  -76.2750 C.3   268  ALA268      0.1728
     57  C         67.8010    7.3290  -76.3920 C.2   268  ALA268      0.2616
     58  O         68.7980    6.8600  -75.8410 O.2   268  ALA268     -0.2715
     59  CB        67.6280    9.4690  -77.6350 C.3   268  ALA268      0.0334
     60  N         66.9640    6.6100  -77.1220 N.am  269  LEU269     -0.1977
     61  CA        67.1780    5.1970  -77.3600 C.3   269  LEU269      0.1596
     62  C         68.4260    4.9940  -78.2170 C.2   269  LEU269      0.2287
     63  O         68.8000    5.8680  -79.0080 O.2   269  LEU269     -0.2864
     64  CB        65.9640    4.6290  -78.0800 C.3   269  LEU269      0.0297
     65  CG        65.0090    3.7490  -77.2900 C.3   269  LEU269      0.0022
     66  CD1       64.7520    4.3370  -75.9320 C.3   269  LEU269      0.0001
     67  CD2       63.7430    3.6020  -78.0820 C.3   269  LEU269      0.0001
     68  N         56.5850   12.9240  -67.7190 N.3   339  GLY339     -0.1210
     69  CA        57.2330   11.7260  -68.2260 C.3   339  GLY339      0.1956
     70  C         58.2640   12.0540  -69.2960 C.2   339  GLY339      0.2613
     71  O         59.1320   11.2430  -69.6110 O.2   339  GLY339     -0.2717
     72  N         58.1680   13.2590  -69.8490 N.am  340  SER340     -0.1938
     73  CA        59.0740   13.7240  -70.8920 C.3   340  SER340      0.2055
     74  C         59.3680   15.2090  -70.6320 C.2   340  SER340      0.2643
     75  O         58.4750   15.9640  -70.2440 O.2   340  SER340     -0.2714
     76  CB        58.4120   13.5500  -72.2660 C.3   340  SER340      0.2130
     77  OG        57.6390   12.3590  -72.3310 O.3   340  SER340     -0.2179
     78  N         60.6190   15.6180  -70.8220 N.am  341  GLY341     -0.1954
     79  CA        60.9850   17.0050  -70.5970 C.3   341  GLY341      0.1869
     80  C         61.3880   17.3730  -69.1740 C.2   341  GLY341      0.2309
     81  O         61.8980   18.4730  -68.9490 O.2   341  GLY341     -0.2863
     82  N         61.5270    8.0490  -64.3220 N.3   346  GLY346     -0.1210
     83  CA        60.1340    8.0460  -63.9190 C.3   346  GLY346      0.1940
     84  C         59.9760    8.5450  -62.4890 C.2   346  GLY346      0.2454
     85  O         60.9240    8.5080  -61.7060 O.2   346  GLY346     -0.2732
     86  N         58.7820    9.0310  -62.1170 N.am  347  PRO347     -0.2717
     87  CA        58.5170    9.5400  -60.7680 C.3   347  PRO347      0.1535
     88  C         58.1250    8.5230  -59.6840 C.2   347  PRO347      0.2599
     89  O         58.4850    8.7120  -58.5190 O.2   347  PRO347     -0.2715
     90  CB        57.4050   10.5560  -61.0070 C.3   347  PRO347      0.0310
     91  CG        56.5990    9.8730  -62.0820 C.3   347  PRO347      0.0237
     92  CD        57.6830    9.3890  -63.0340 C.3   347  PRO347      0.0939
     93  N         57.3980    7.4630  -60.0560 N.am  348  TYR348     -0.1960
     94  CA        56.9240    6.4680  -59.0750 C.3   348  TYR348      0.1771
     95  C         56.4350    7.2430  -57.8410 C.2   348  TYR348      0.2619
     96  O         57.0210    7.1640  -56.7520 O.2   348  TYR348     -0.2715
     97  CB        58.0470    5.5020  -58.6890 C.3   348  TYR348      0.0574
     98  CG        58.3900    4.5260  -59.7840 C.ar  348  TYR348     -0.0198
     99  CD1       59.6340    4.5550  -60.4190 C.ar  348  TYR348     -0.0009
    100  CD2       57.4650    3.5780  -60.1980 C.ar  348  TYR348     -0.0009
    101  CE1       59.9460    3.6570  -61.4380 C.ar  348  TYR348      0.0417
    102  CE2       57.7650    2.6810  -61.2110 C.ar  348  TYR348      0.0417
    103  CZ        59.0090    2.7250  -61.8200 C.ar  348  TYR348      0.1957
    104  OH        59.3260    1.8040  -62.7800 O.3   348  TYR348     -0.2866
    105  N         55.3670    8.0140  -58.0370 N.am  349  ASN349     -0.1972
    106  CA        54.8030    8.8530  -56.9860 C.3   349  ASN349      0.1688
    107  C         53.6570    8.1180  -56.2940 C.2   349  ASN349      0.2292
    108  O         52.9600    7.3110  -56.9010 O.2   349  ASN349     -0.2864
    109  CB        54.3380   10.1920  -57.5920 C.3   349  ASN349      0.1181
    110  CG        53.4230    9.9980  -58.7780 C.2   349  ASN349      0.2629
    111  OD1       53.8210    9.4060  -59.7810 O.2   349  ASN349     -0.2716
    112  ND2       52.1830   10.4700  -58.6660 N.am  349  ASN349     -0.0877
    113  N         46.6560    5.8290  -58.4170 N.3   393  GLU393     -0.1231
    114  CA        46.4780    5.3720  -59.7940 C.3   393  GLU393      0.1699
    115  C         45.9700    3.9350  -59.8640 C.2   393  GLU393      0.2592
    116  O         45.4050    3.5370  -60.8800 O.2   393  GLU393     -0.2718
    117  CB        47.8000    5.4640  -60.5490 C.3   393  GLU393      0.0402
    118  CG        48.9510    4.9440  -59.7300 C.3   393  GLU393      0.1161
    119  CD        50.2730    5.0150  -60.4450 C.2   393  GLU393      0.3649
    120  OE1       50.5220    4.1690  -61.3370 O.co2 393  GLU393     -0.2457
    121  OE2       51.0580    5.9240  -60.1040 O.co2 393  GLU393     -0.2457
    122  N         46.1660    3.1590  -58.7950 N.am  394  ASP394     -0.1974
    123  CA        45.7250    1.7620  -58.7780 C.3   394  ASP394      0.1709
    124  C         44.2540    1.5340  -58.4240 C.2   394  ASP394      0.2293
    125  O         43.7310    0.4290  -58.6120 O.2   394  ASP394     -0.2864
    126  CB        46.5850    0.9310  -57.8220 C.3   394  ASP394      0.1436
    127  CG        48.0350    0.8500  -58.2570 C.2   394  ASP394      0.3671
    128  OD1       48.3070    0.6640  -59.4620 O.co2 394  ASP394     -0.2456
    129  OD2       48.9090    0.9610  -57.3810 O.co2 394  ASP394     -0.2456
    130  N         53.8070   -2.0910  -57.3760 N.3   403  TRP403     -0.1241
    131  CA        54.9640   -1.4880  -56.7320 C.3   403  TRP403      0.1605
    132  C         54.5460   -0.4400  -55.7060 C.2   403  TRP403      0.2264
    133  O         55.2880   -0.1570  -54.7720 O.2   403  TRP403     -0.2867
    134  CB        55.8520   -0.8220  -57.7830 C.3   403  TRP403      0.0550
    135  CG        55.1180    0.1660  -58.7000 C.ar  403  TRP403      0.0003
    136  CD1       54.6420   -0.0860  -59.9530 C.ar  403  TRP403      0.0946
    137  CD2       54.8350    1.5540  -58.4390 C.ar  403  TRP403      0.0152
    138  NE1       54.0910    1.0520  -60.4940 N.ar  403  TRP403     -0.2442
    139  CE2       54.1950    2.0740  -59.5900 C.ar  403  TRP403      0.0810
    140  CE3       55.0640    2.4070  -57.3480 C.ar  403  TRP403      0.0012
    141  CZ2       53.7790    3.4110  -59.6830 C.ar  403  TRP403      0.0191
    142  CZ3       54.6480    3.7410  -57.4360 C.ar  403  TRP403      0.0001
    143  CH2       54.0150    4.2280  -58.6000 C.ar  403  TRP403      0.0015
    144  N         48.6130    0.9950  -67.7660 N.3   465  TRP465     -0.1241
    145  CA        50.0210    0.8960  -68.1080 C.3   465  TRP465      0.1605
    146  C         50.5210   -0.4510  -67.6020 C.2   465  TRP465      0.2264
    147  O         50.3180   -0.7760  -66.4320 O.2   465  TRP465     -0.2867
    148  CB        50.8080    2.0140  -67.4190 C.3   465  TRP465      0.0550
    149  CG        52.2330    2.0890  -67.8580 C.ar  465  TRP465      0.0003
    150  CD1       53.1320    1.0610  -67.9070 C.ar  465  TRP465      0.0946
    151  CD2       52.9200    3.2470  -68.3520 C.ar  465  TRP465      0.0152
    152  NE1       54.3330    1.5050  -68.4040 N.ar  465  TRP465     -0.2442
    153  CE2       54.2340    2.8420  -68.6820 C.ar  465  TRP465      0.0810
    154  CE3       52.5570    4.5880  -68.5430 C.ar  465  TRP465      0.0012
    155  CZ2       55.1810    3.7270  -69.2010 C.ar  465  TRP465      0.0191
    156  CZ3       53.5040    5.4690  -69.0600 C.ar  465  TRP465      0.0001
    157  CH2       54.8010    5.0320  -69.3790 C.ar  465  TRP465      0.0015
    158  N         49.7250   -7.0480  -64.2660 N.3   470  PHE470     -0.1241
    159  CA        48.6250   -7.2580  -63.3310 C.3   470  PHE470      0.1605
    160  C         48.1830   -8.7140  -63.4250 C.2   470  PHE470      0.2264
    161  O         47.8650   -9.3620  -62.4310 O.2   470  PHE470     -0.2867
    162  CB        47.4570   -6.3040  -63.6290 C.3   470  PHE470      0.0534
    163  CG        47.7450   -4.8640  -63.2760 C.ar  470  PHE470     -0.0203
    164  CD1       48.4620   -4.0440  -64.1590 C.ar  470  PHE470     -0.0042
    165  CD2       47.3450   -4.3430  -62.0400 C.ar  470  PHE470     -0.0042
    166  CE1       48.7730   -2.7330  -63.8280 C.ar  470  PHE470     -0.0003
    167  CE2       47.6520   -3.0280  -61.6890 C.ar  470  PHE470     -0.0003
    168  CZ        48.3730   -2.2180  -62.5870 C.ar  470  PHE470     -0.0000
    169  N         60.8670   -1.5680  -75.7070 N.3   524  HIS524     -0.1241
    170  CA        61.3850   -0.2340  -75.5080 C.3   524  HIS524      0.1621
    171  C         62.5470   -0.3370  -74.5360 C.2   524  HIS524      0.2264
    172  O         62.3700   -0.2920  -73.3260 O.2   524  HIS524     -0.2867
    173  CB        60.2920    0.6660  -74.9500 C.3   524  HIS524      0.0745
    174  CG        60.7620    2.0430  -74.6110 C.ar  524  HIS524      0.0817
    175  ND1       61.3270    2.3540  -73.3930 N.ar  524  HIS524     -0.2268
    176  CD2       60.7910    3.1820  -75.3430 C.ar  524  HIS524      0.1154
    177  CE1       61.6860    3.6250  -73.3930 C.ar  524  HIS524      0.1986
    178  NE2       61.3720    4.1510  -74.5620 N.ar  524  HIS524     -0.2212
    179  N         66.9730    0.7210  -74.2800 N.3   526  ARG526     -0.1245
    180  CA        68.0340    1.5070  -74.8790 C.3   526  ARG526      0.1563
    181  C         69.1790    0.7120  -75.4920 C.2   526  ARG526      0.2260
    182  O         69.9690    1.2620  -76.2580 O.2   526  ARG526     -0.2867
    183  CB        68.5620    2.5130  -73.8480 C.3   526  ARG526      0.0307
    184  CG        68.3140    3.9670  -74.2520 C.3   526  ARG526      0.0489
    185  CD        68.1660    4.9170  -73.0660 C.3   526  ARG526      0.2205
    186  NE        66.9220    4.6360  -72.3780 N.pl3 526  ARG526     -0.0865
    187  CZ        66.0850    5.5570  -71.9350 C.cat 526  ARG526      0.5346
    188  NH1       66.3470    6.8460  -72.0970 N.pl3 526  ARG526      0.1354
    189  NH2       64.9800    5.1690  -71.3370 N.pl3 526  ARG526      0.1354
    190  N         49.4590    6.7300  -73.8800 N.3   553  GLU553     -0.1245
    191  CA        50.4370    7.5180  -73.1590 C.3   553  GLU553      0.1567
    192  C         51.8360    7.6610  -73.7780 C.2   553  GLU553      0.2260
    193  O         52.8140    7.9490  -73.0810 O.2   553  GLU553     -0.2867
    194  CB        50.4990    7.0020  -71.7220 C.3   553  GLU553      0.0388
    195  CG        49.1230    6.9970  -71.0470 C.3   553  GLU553      0.1160
    196  CD        49.1630    6.4910  -69.6120 C.2   553  GLU553      0.3649
    197  OE1       49.5780    5.3370  -69.4000 O.co2 553  GLU553     -0.2457
    198  OE2       48.7830    7.2400  -68.6890 O.co2 553  GLU553     -0.2457
    199  N         59.7020    2.3390  -79.8090 N.3   576  ASP576     -0.1239
    200  CA        59.4070    3.6950  -79.3260 C.3   576  ASP576      0.1674
    201  C         58.1980    3.7680  -78.4220 C.2   576  ASP576      0.2266
    202  O         58.0860    4.6980  -77.6340 O.2   576  ASP576     -0.2867
    203  CB        59.1910    4.7140  -80.4610 C.3   576  ASP576      0.1410
    204  CG        60.4710    5.0790  -81.1830 C.2   576  ASP576      0.3668
    205  OD1       61.5540    5.0770  -80.5610 O.co2 576  ASP576     -0.2456
    206  OD2       60.3870    5.3880  -82.3880 O.co2 576  ASP576     -0.2456
    207  N         56.9480    3.4730  -75.4560 N.3   578  TRP578     -0.1241
    208  CA        57.2990    3.2270  -74.0640 C.3   578  TRP578      0.1605
    209  C         56.1180    2.9310  -73.1400 C.2   578  TRP578      0.2264
    210  O         56.2760    2.2360  -72.1410 O.2   578  TRP578     -0.2867
    211  CB        58.1270    4.3930  -73.5110 C.3   578  TRP578      0.0550
    212  CG        57.4370    5.7290  -73.5680 C.ar  578  TRP578      0.0003
    213  CD1       56.3430    6.1280  -72.8420 C.ar  578  TRP578      0.0946
    214  CD2       57.8130    6.8530  -74.3760 C.ar  578  TRP578      0.0152
    215  NE1       56.0190    7.4320  -73.1510 N.ar  578  TRP578     -0.2442
    216  CE2       56.9050    7.9000  -74.0900 C.ar  578  TRP578      0.0810
    217  CE3       58.8290    7.0770  -75.3190 C.ar  578  TRP578      0.0012
    218  CZ2       56.9890    9.1580  -74.7080 C.ar  578  TRP578      0.0191
    219  CZ3       58.9100    8.3310  -75.9350 C.ar  578  TRP578      0.0001
    220  CH2       57.9940    9.3500  -75.6260 C.ar  578  TRP578      0.0015
    221  N         57.3040   -1.6600  -73.1000 N.3   582  GLN582     -0.1245
    222  CA        58.4960   -1.5690  -72.2650 C.3   582  GLN582      0.1566
    223  C         58.7010   -2.8330  -71.4120 C.2   582  GLN582      0.2260
    224  O         57.7910   -3.6520  -71.2720 O.2   582  GLN582     -0.2867
    225  CB        58.4020   -0.3270  -71.3720 C.3   582  GLN582      0.0367
    226  CG        59.7100    0.0360  -70.6960 C.3   582  GLN582      0.0905
    227  CD        59.7980    1.5000  -70.3110 C.2   582  GLN582      0.2608
    228  OE1       58.8260    2.2480  -70.4140 O.2   582  GLN582     -0.2717
    229  NE2       60.9730    1.9160  -69.8650 N.am  582  GLN582     -0.0878
    230  N         60.4870   -4.2750  -67.5970 N.3   584  THR584     -0.1218
    231  CA        60.9650   -3.8230  -66.2980 C.3   584  THR584      0.1862
    232  C         61.3480   -4.9320  -65.3250 C.2   584  THR584      0.2287
    233  O         61.1970   -6.1150  -65.6230 O.2   584  THR584     -0.2866
    234  CB        59.8820   -2.9960  -65.5990 C.3   584  THR584      0.1770
    235  OG1       58.9660   -3.8800  -64.9350 O.3   584  THR584     -0.2211
    236  CG2       59.1290   -2.1370  -66.6170 C.3   584  THR584      0.0375
    237  N         59.9400   -5.0110  -62.1740 N.3   586  ASN586     -0.1225
    238  CA        58.7150   -5.3460  -61.4730 C.3   586  ASN586      0.1785
    239  C         57.7620   -6.1560  -62.3300 C.2   586  ASN586      0.2597
    240  O         56.6830   -6.5210  -61.8780 O.2   586  ASN586     -0.2718
    241  CB        58.0170   -4.0900  -60.9410 C.3   586  ASN586      0.1169
    242  CG        57.4940   -3.1820  -62.0380 C.2   586  ASN586      0.2627
    243  OD1       58.2390   -2.7330  -62.9130 O.2   586  ASN586     -0.2716
    244  ND2       56.1990   -2.8860  -61.9780 N.am  586  ASN586     -0.0877
    245  N         58.1590   -6.4410  -63.5660 N.am  587  TRP587     -0.1976
    246  CA        57.3420   -7.2560  -64.4600 C.3   587  TRP587      0.1640
    247  C         58.0310   -8.6000  -64.7500 C.2   587  TRP587      0.2290
    248  O         57.3760   -9.6360  -64.8940 O.2   587  TRP587     -0.2864
    249  CB        57.0740   -6.5280  -65.7850 C.3   587  TRP587      0.0576
    250  CG        56.3240   -5.2390  -65.6490 C.ar  587  TRP587      0.0006
    251  CD1       55.6660   -4.7820  -64.5450 C.ar  587  TRP587      0.0946
    252  CD2       56.2050   -4.2120  -66.6410 C.ar  587  TRP587      0.0152
    253  NE1       55.1520   -3.5360  -64.7810 N.ar  587  TRP587     -0.2442
    254  CE2       55.4670   -3.1590  -66.0590 C.ar  587  TRP587      0.0810
    255  CE3       56.6540   -4.0780  -67.9670 C.ar  587  TRP587      0.0012
    256  CZ2       55.1710   -1.9810  -66.7490 C.ar  587  TRP587      0.0191
    257  CZ3       56.3590   -2.9020  -68.6570 C.ar  587  TRP587      0.0001
    258  CH2       55.6220   -1.8710  -68.0420 C.ar  587  TRP587      0.0015
@<TRIPOS>BOND
     1   206   204   ar
     2   204   205   ar
     3   204   203    1
     4   203   200    1
     5   199   200    1
     6   200   201    1
     7    63    62    2
     8   201   202    2
     9    62    61    1
    10    67    65    1
    11    64    61    1
    12    64    65    1
    13    59    56    1
    14    61    60    1
    15    65    66    1
    16    60    57   am
    17    57    56    1
    18    57    58    2
    19    56    55    1
    20   182   181    2
    21   219   220   ar
    22   219   217   ar
    23   169   170    1
    24   220   218   ar
    25   170   173    1
    26   170   171    1
    27   181   180    1
    28   207   208    1
    29   176   174   ar
    30   176   178   ar
    31   217   214   ar
    32    55    50   am
    33   173   174    1
    34   180   179    1
    35   180   183    1
    36   218   216   ar
    37   174   175   ar
    38   178   177   ar
    39   171   172    2
    40   214   216   ar
    41   214   212   ar
    42   184   183    1
    43   184   185    1
    44   216   215   ar
    45   208   211    1
    46   208   209    1
    47    50    51    2
    48    50    49    1
    49   190   191    1
    50   192   191    1
    51   192   193    2
    52   212   211    1
    53   212   213   ar
    54   175   177   ar
    55   191   194    1
    56   215   213   ar
    57   209   210    2
    58   221   222    1
    59   185   186    1
    60    49    52    1
    61    49    48    1
    62    52    53    1
    63    52    54    1
    64    37    36    2
    65   186   187    2
    66    77    76    1
    67    76    73    1
    68   222   223    1
    69   222   225    1
    70   188   187    1
    71   187   189    1
    72    48    36   am
    73   194   195    1
    74    36    35    1
    75   223   224    2
    76   225   226    1
    77    38    35    1
    78    38    39    1
    79   195   196    1
    80    73    74    1
    81    73    72    1
    82    78    74   am
    83    78    79    1
    84   226   227    1
    85    74    75    2
    86    79    80    1
    87    35    34    1
    88   228   227    2
    89   227   229   am
    90    39    40   ar
    91    39    41   ar
    92    72    70   am
    93   196   197   ar
    94   196   198   ar
    95    71    70    2
    96    40    42   ar
    97    44    41   ar
    98    44    46   ar
    99    41    43   ar
   100   157   155   ar
   101   157   156   ar
   102    14    15    1
   103    70    69    1
   104   155   153   ar
   105    80    81    2
   106   156   154   ar
   107    15    18    1
   108    15    16    1
   109    46    47   ar
   110    42    43   ar
   111   153   152   ar
   112   153   151   ar
   113   257   258   ar
   114   257   255   ar
   115    11    12    2
   116    11    10    1
   117    43    45   ar
   118   154   151   ar
   119   152   150   ar
   120   151   149   ar
   121    69    68    1
   122    18    19    1
   123   145   144    1
   124   145   146    1
   125   145   148    1
   126   258   256   ar
   127    16    17    2
   128   255   252   ar
   129   150   149   ar
   130    47    45   ar
   131   149   148    1
   132   146   147    2
   133   230   231    1
   134    13    10    1
   135    10     9    1
   136    19    20   ar
   137    19    21   ar
   138   256   254   ar
   139   252   254   ar
   140   252   250   ar
   141   236   234    1
   142   231   234    1
   143   231   232    1
   144     9     3   am
   145   254   253   ar
   146   249   250    1
   147   249   246    1
   148   250   251   ar
   149   233   232    2
   150   234   235    1
   151     3     4    2
   152     3     2    1
   153   248   247    2
   154   253   251   ar
   155   247   246    1
   156   246   245    1
   157    82    83    1
   158   158   159    1
   159   164   166   ar
   160   164   163   ar
   161    33    32    1
   162     1     2    1
   163    83    84    1
   164     2     5    1
   165   166   168   ar
   166   162   159    1
   167   162   163    1
   168     7     6   ar
   169   245   239   am
   170     5     6    1
   171   160   159    1
   172   160   161    2
   173   163   165   ar
   174    92    86    1
   175    92    91    1
   176   243   242    2
   177     6     8   ar
   178   104   103    1
   179    32    30   ar
   180    32    31   ar
   181   168   167   ar
   182    30    28   ar
   183    84    86   am
   184    84    85    2
   185   239   240    2
   186   239   238    1
   187   237   238    1
   188    86    87    1
   189    91    90    1
   190   165   167   ar
   191   242   244   am
   192   242   241    1
   193   103   101   ar
   194   103   102   ar
   195    31    29   ar
   196   238   241    1
   197   101    99   ar
   198   120   119   ar
   199    28    27   ar
   200   102   100   ar
   201    90    87    1
   202   116   115    2
   203    87    88    1
   204   117   114    1
   205   117   118    1
   206   138   136   ar
   207   138   139   ar
   208    29    27   ar
   209   119   121   ar
   210   119   118    1
   211    99    98   ar
   212    27    26    1
   213   100    98   ar
   214    93    88   am
   215    93    94    1
   216   136   135   ar
   217   115   114    1
   218   115   122   am
   219   114   113    1
   220    98    97    1
   221   111   110    2
   222    88    89    2
   223   141   139   ar
   224   141   143   ar
   225   139   137   ar
   226   128   127   ar
   227    94    97    1
   228    94    95    1
   229    22    23    1
   230    26    23    1
   231   122   123    1
   232   123   124    1
   233   123   126    1
   234   110   112   am
   235   110   109    1
   236   135   137   ar
   237   135   134    1
   238   125   124    2
   239   143   142   ar
   240   137   140   ar
   241   127   126    1
   242   127   129   ar
   243    23    24    1
   244   105    95   am
   245   105   106    1
   246    95    96    2
   247   134   131    1
   248   109   106    1
   249   142   140   ar
   250   130   131    1
   251    25    24    2
   252   106   107    1
   253   108   107    2
   254   131   132    1
   255   132   133    2
