@<TRIPOS>MOLECULE
tmp/1rqdB01.pdb
 81 76 0 0 0
SMALL
GASTEIGER

@<TRIPOS>ATOM
      1  N         33.0830   -5.9290   43.5540 N.3   246  HIS246     -0.1241
      2  CA        32.0920   -6.9550   43.8130 C.3   246  HIS246      0.1621
      3  C         31.7650   -7.1510   45.2710 C.2   246  HIS246      0.2264
      4  O         30.6000   -7.2900   45.6430 O.2   246  HIS246     -0.2867
      5  CB        32.5350   -8.2880   43.2320 C.3   246  HIS246      0.0745
      6  CG        31.5080   -9.3660   43.3740 C.ar  246  HIS246      0.0817
      7  ND1       31.2310   -9.9760   44.5810 N.ar  246  HIS246     -0.2268
      8  CD2       30.6680   -9.9230   42.4680 C.ar  246  HIS246      0.1154
      9  CE1       30.2670  -10.8640   44.4100 C.ar  246  HIS246      0.1986
     10  NE2       29.9060  -10.8520   43.1370 N.ar  246  HIS246     -0.2212
     11  N         28.1050   -6.7010   46.5410 N.3   250  ASN250     -0.1240
     12  CA        27.4560   -7.9450   46.9760 C.3   250  ASN250      0.1653
     13  C         26.9170   -7.7910   48.3810 C.2   250  ASN250      0.2266
     14  O         25.8690   -8.3630   48.7170 O.2   250  ASN250     -0.2867
     15  CB        28.3850   -9.1570   46.9330 C.3   250  ASN250      0.1155
     16  CG        27.6450  -10.4860   46.8390 C.2   250  ASN250      0.2627
     17  OD1       26.7080  -10.6390   46.0650 O.2   250  ASN250     -0.2716
     18  ND2       28.0660  -11.4340   47.6100 N.am  250  ASN250     -0.0877
     19  N         23.7030   -6.0840   48.3600 N.3   253  LEU253     -0.1245
     20  CA        22.6550   -6.9330   47.8230 C.3   253  LEU253      0.1561
     21  C         21.8650   -7.5340   48.9850 C.2   253  LEU253      0.2260
     22  O         20.6780   -7.8220   48.8530 O.2   253  LEU253     -0.2867
     23  CB        23.2740   -8.0360   46.9650 C.3   253  LEU253      0.0270
     24  CG        22.3610   -9.1550   46.4690 C.3   253  LEU253      0.0019
     25  CD1       21.1220   -8.5880   45.7850 C.3   253  LEU253      0.0001
     26  CD2       23.1550  -10.0190   45.5050 C.3   253  LEU253      0.0001
     27  N         33.0910   -9.1390   29.4770 N.3   272  GLY272     -0.1210
     28  CA        32.1620   -9.8130   30.3680 C.3   272  GLY272      0.1956
     29  C         32.6850   -9.8640   31.7930 C.2   272  GLY272      0.2613
     30  O         32.2300  -10.7000   32.5850 O.2   272  GLY272     -0.2717
     31  N         33.6320   -8.9750   32.1210 N.am  273  SER273     -0.1938
     32  CA        34.2370   -8.9440   33.4510 C.3   273  SER273      0.2055
     33  C         33.3000   -8.2820   34.4190 C.2   273  SER273      0.2643
     34  O         32.3940   -7.5600   34.0050 O.2   273  SER273     -0.2714
     35  CB        35.5880   -8.2100   33.4310 C.3   273  SER273      0.2130
     36  OG        35.4620   -6.8680   33.0050 O.3   273  SER273     -0.2179
     37  N         33.4890   -8.5670   35.7040 N.am  274  ASP274     -0.1971
     38  CA        32.6490   -7.9780   36.7300 C.3   274  ASP274      0.1709
     39  C         33.1760   -6.5630   36.8720 C.2   274  ASP274      0.2293
     40  O         32.4090   -5.6220   37.0750 O.2   274  ASP274     -0.2864
     41  CB        32.7880   -8.7320   38.0490 C.3   274  ASP274      0.1436
     42  CG        31.9440   -8.1200   39.1570 C.2   274  ASP274      0.3671
     43  OD1       30.7260   -8.4040   39.1910 O.co2 274  ASP274     -0.2456
     44  OD2       32.4910   -7.3460   39.9850 O.co2 274  ASP274     -0.2456
     45  N         31.6850   -4.2800   34.3210 N.3   277  ALA277     -0.1245
     46  CA        30.2310   -4.2490   34.2490 C.3   277  ALA277      0.1562
     47  C         29.6790   -2.8640   34.5900 C.2   277  ALA277      0.2260
     48  O         30.1530   -2.2290   35.5380 O.2   277  ALA277     -0.2867
     49  CB        29.6400   -5.3060   35.1840 C.3   277  ALA277      0.0290
     50  N         24.0730   -3.3800   35.4070 N.3   281  GLU281     -0.1245
     51  CA        24.0900   -4.8270   35.4930 C.3   281  GLU281      0.1567
     52  C         23.8890   -5.2210   36.9530 C.2   281  GLU281      0.2260
     53  O         23.2500   -6.2330   37.2540 O.2   281  GLU281     -0.2867
     54  CB        25.4190   -5.3910   35.0040 C.3   281  GLU281      0.0388
     55  CG        25.3390   -6.8870   34.7560 C.3   281  GLU281      0.1160
     56  CD        26.6710   -7.5970   34.8420 C.2   281  GLU281      0.3649
     57  OE1       27.1140   -7.8810   35.9810 O.co2 281  GLU281     -0.2457
     58  OE2       27.2630   -7.8690   33.7680 O.co2 281  GLU281     -0.2457
     59  N         20.9650   -7.8550   39.6250 N.3   285  TRP285     -0.1241
     60  CA        21.2660   -8.7560   40.7360 C.3   285  TRP285      0.1605
     61  C         20.6130   -8.2100   42.0020 C.2   285  TRP285      0.2264
     62  O         20.3440   -8.9480   42.9540 O.2   285  TRP285     -0.2867
     63  CB        22.7840   -8.8550   40.9670 C.3   285  TRP285      0.0550
     64  CG        23.5310   -9.5330   39.8700 C.ar  285  TRP285      0.0003
     65  CD1       23.9960   -8.9720   38.7110 C.ar  285  TRP285      0.0946
     66  CD2       23.8460  -10.9210   39.7950 C.ar  285  TRP285      0.0152
     67  NE1       24.5770   -9.9330   37.9160 N.ar  285  TRP285     -0.2442
     68  CE2       24.4920  -11.1420   38.5560 C.ar  285  TRP285      0.0810
     69  CE3       23.6290  -12.0100   40.6460 C.ar  285  TRP285      0.0012
     70  CZ2       24.9340  -12.4040   38.1560 C.ar  285  TRP285      0.0191
     71  CZ3       24.0670  -13.2680   40.2470 C.ar  285  TRP285      0.0001
     72  CH2       24.7070  -13.4550   39.0110 C.ar  285  TRP285      0.0015
     73  N         21.9640   -5.2860   43.5410 N.3   287  LYS287     -0.1245
     74  CA        23.0430   -4.7060   44.3470 C.3   287  LYS287      0.1561
     75  C         22.8860   -3.1920   44.4210 C.2   287  LYS287      0.2260
     76  O         23.4040   -2.5380   45.3230 O.2   287  LYS287     -0.2867
     77  CB        24.4050   -5.0610   43.7440 C.3   287  LYS287      0.0271
     78  CG        24.7480   -6.5400   43.8140 C.3   287  LYS287      0.0035
     79  CD        26.0340   -6.8100   43.0790 C.3   287  LYS287      0.0206
     80  CE        26.4500   -8.2420   43.2300 C.3   287  LYS287      0.1093
     81  NZ        27.6100   -8.5170   42.3650 N.3   287  LYS287     -0.1314
@<TRIPOS>BOND
     1    27    28    1
     2    28    29    1
     3    29    31   am
     4    29    30    2
     5    31    32    1
     6    36    35    1
     7    35    32    1
     8    32    33    1
     9    58    56   ar
    10    34    33    2
    11    46    45    1
    12    46    47    1
    13    46    49    1
    14    33    37   am
    15    47    48    2
    16    55    56    1
    17    55    54    1
    18    56    57   ar
    19    54    51    1
    20    50    51    1
    21    51    52    1
    22    37    38    1
    23    38    39    1
    24    38    41    1
    25    39    40    2
    26    52    53    2
    27    67    68   ar
    28    67    65   ar
    29    41    42    1
    30    70    68   ar
    31    70    72   ar
    32    68    66   ar
    33    65    64   ar
    34    72    71   ar
    35    42    43   ar
    36    42    44   ar
    37    59    60    1
    38    66    64   ar
    39    66    69   ar
    40    64    63    1
    41    71    69   ar
    42    60    63    1
    43    60    61    1
    44    61    62    2
    45    81    80    1
    46     8    10   ar
    47     8     6   ar
    48    79    80    1
    49    79    78    1
    50    10     9   ar
    51     5     6    1
    52     5     2    1
    53     6     7   ar
    54    73    74    1
    55     1     2    1
    56    77    78    1
    57    77    74    1
    58     2     3    1
    59    74    75    1
    60     9     7   ar
    61    75    76    2
    62     3     4    2
    63    26    24    1
    64    25    24    1
    65    17    16    2
    66    24    23    1
    67    11    12    1
    68    16    15    1
    69    16    18   am
    70    15    12    1
    71    23    20    1
    72    12    13    1
    73    20    19    1
    74    20    21    1
    75    13    14    2
    76    22    21    2
