@<TRIPOS>MOLECULE
tmp/1rqeA00.pdb
 138 128 0 0 0
SMALL
GASTEIGER

@<TRIPOS>ATOM
      1  N         90.6920   19.8350   -1.6220 N.3    20  ARG20      -0.1231
      2  CA        89.2530   19.6760   -1.7010 C.3    20  ARG20       0.1694
      3  C         88.6720   19.7380   -3.1220 C.2    20  ARG20       0.2592
      4  O         88.3510   18.7010   -3.6990 O.2    20  ARG20      -0.2718
      5  CB        88.5650   20.7040   -0.7930 C.3    20  ARG20       0.0321
      6  CG        87.1090   20.3970   -0.4460 C.3    20  ARG20       0.0489
      7  CD        86.1420   20.4230   -1.6480 C.3    20  ARG20       0.2205
      8  NE        86.0520   21.7530   -2.2470 N.pl3  20  ARG20      -0.0865
      9  CZ        85.0770   22.1450   -3.0650 C.cat  20  ARG20       0.5346
     10  NH1       84.0980   21.3050   -3.3900 N.pl3  20  ARG20       0.1354
     11  NH2       85.0720   23.3820   -3.5500 N.pl3  20  ARG20       0.1354
     12  N         88.5390   20.9290   -3.6960 N.am   21  ASP21      -0.1974
     13  CA        87.9360   21.0370   -5.0180 C.3    21  ASP21       0.1709
     14  C         88.7340   20.3550   -6.1400 C.2    21  ASP21       0.2293
     15  O         88.1500   19.7550   -7.0450 O.2    21  ASP21      -0.2864
     16  CB        87.6780   22.5160   -5.3650 C.3    21  ASP21       0.1436
     17  CG        86.4630   22.7130   -6.2950 C.2    21  ASP21       0.3671
     18  OD1       86.2810   23.8350   -6.8290 O.co2  21  ASP21      -0.2456
     19  OD2       85.6830   21.7550   -6.4890 O.co2  21  ASP21      -0.2456
     20  N         87.9760   16.7480   -6.2130 N.3    24  GLN24      -0.1245
     21  CA        86.5500   16.5680   -6.4150 C.3    24  GLN24       0.1566
     22  C         86.2860   16.7310   -7.9140 C.2    24  GLN24       0.2260
     23  O         85.4560   16.0370   -8.4920 O.2    24  GLN24      -0.2867
     24  CB        85.7350   17.6190   -5.6500 C.3    24  GLN24       0.0367
     25  CG        84.2380   17.5720   -5.9870 C.3    24  GLN24       0.0905
     26  CD        83.3960   18.4270   -5.0610 C.2    24  GLN24       0.2608
     27  OE1       83.6630   18.5080   -3.8560 O.2    24  GLN24      -0.2717
     28  NE2       82.3560   19.0550   -5.6140 N.am   24  GLN24      -0.0878
     29  N         91.6720   25.4430    1.0450 N.3    52  GLU52      -0.1245
     30  CA        90.3620   24.7910    0.9600 C.3    52  GLU52       0.1567
     31  C         90.6060   23.3010    1.1830 C.2    52  GLU52       0.2260
     32  O         91.2990   22.6580    0.3830 O.2    52  GLU52      -0.2867
     33  CB        89.7100   25.0080   -0.4080 C.3    52  GLU52       0.0388
     34  CG        88.2230   24.7620   -0.3660 C.3    52  GLU52       0.1160
     35  CD        87.6300   24.5080   -1.7180 C.2    52  GLU52       0.3649
     36  OE1       86.6270   25.1710   -2.0620 O.co2  52  GLU52      -0.2457
     37  OE2       88.1550   23.6280   -2.4290 O.co2  52  GLU52      -0.2457
     38  N         82.0560   20.9100    0.4400 N.3    56  GLY56      -0.1210
     39  CA        81.7790   20.4760   -0.9130 C.3    56  GLY56       0.1956
     40  C         81.2720   19.0470   -0.8460 C.2    56  GLY56       0.2611
     41  O         80.4440   18.7360    0.0010 O.2    56  GLY56      -0.2717
     42  N         81.7940   18.1770   -1.7020 N.am   57  ALA57      -0.1979
     43  CA        81.3690   16.7810   -1.7500 C.3    57  ALA57       0.1597
     44  C         82.1980   15.8180   -0.9160 C.2    57  ALA57       0.2287
     45  O         81.9400   14.6040   -0.9420 O.2    57  ALA57      -0.2864
     46  CB        81.3760   16.3010   -3.1910 C.3    57  ALA57       0.0319
     47  N         83.6590   24.7740    1.6440 N.3    89  LEU89      -0.1245
     48  CA        82.5730   25.1640    0.7590 C.3    89  LEU89       0.1561
     49  C         81.3060   24.6270    1.4230 C.2    89  LEU89       0.2260
     50  O         81.2040   23.4230    1.6980 O.2    89  LEU89      -0.2867
     51  CB        82.7370   24.5230   -0.6100 C.3    89  LEU89       0.0270
     52  CG        81.5690   24.9090   -1.5080 C.3    89  LEU89       0.0019
     53  CD1       81.7830   26.3410   -1.9840 C.3    89  LEU89       0.0001
     54  CD2       81.4670   23.9620   -2.6860 C.3    89  LEU89       0.0001
     55  N         77.0300   24.7290    1.1280 N.3    91  ARG91      -0.1245
     56  CA        75.8810   25.1670    0.3300 C.3    91  ARG91       0.1563
     57  C         74.6770   25.6650    1.1170 C.2    91  ARG91       0.2260
     58  O         73.6270   25.0270    1.1610 O.2    91  ARG91      -0.2867
     59  CB        75.4450   24.0850   -0.6790 C.3    91  ARG91       0.0307
     60  CG        75.7860   22.6400   -0.3470 C.3    91  ARG91       0.0489
     61  CD        77.2850   22.3490   -0.4420 C.3    91  ARG91       0.2205
     62  NE        77.5950   21.1600   -1.2360 N.pl3  91  ARG91      -0.0865
     63  CZ        76.9160   20.0160   -1.1960 C.cat  91  ARG91       0.5346
     64  NH1       75.8600   19.8860   -0.4000 N.pl3  91  ARG91       0.1354
     65  NH2       77.3090   18.9900   -1.9390 N.pl3  91  ARG91       0.1354
     66  N         82.9980   29.5430    2.9410 N.3   122  ARG122     -0.1245
     67  CA        82.4620   30.0730    1.6970 C.3   122  ARG122      0.1563
     68  C         81.0460   29.5190    1.6050 C.2   122  ARG122      0.2260
     69  O         80.8410   28.3440    1.3130 O.2   122  ARG122     -0.2867
     70  CB        83.2850   29.6310    0.4830 C.3   122  ARG122      0.0307
     71  CG        82.6690   30.0800   -0.8240 C.3   122  ARG122      0.0489
     72  CD        83.5310   29.7300   -2.0100 C.3   122  ARG122      0.2205
     73  NE        84.7010   30.5910   -2.0990 N.pl3 122  ARG122     -0.0865
     74  CZ        85.7850   30.2930   -2.8070 C.cat 122  ARG122      0.5346
     75  NH1       85.8310   29.1540   -3.4860 N.pl3 122  ARG122      0.1354
     76  NH2       86.8340   31.1150   -2.8120 N.pl3 122  ARG122      0.1354
     77  N         77.3280   29.4840   -0.1150 N.3   124  PHE124     -0.1241
     78  CA        76.7330   29.7970   -1.4150 C.3   124  PHE124      0.1605
     79  C         75.4110   29.0770   -1.5590 C.2   124  PHE124      0.2264
     80  O         75.1420   28.1110   -0.8490 O.2   124  PHE124     -0.2867
     81  CB        77.6610   29.3490   -2.5630 C.3   124  PHE124      0.0534
     82  CG        77.5070   27.8920   -2.9480 C.ar  124  PHE124     -0.0203
     83  CD1       76.8480   27.5320   -4.1220 C.ar  124  PHE124     -0.0042
     84  CD2       78.0080   26.8770   -2.1260 C.ar  124  PHE124     -0.0042
     85  CE1       76.6880   26.1800   -4.4780 C.ar  124  PHE124     -0.0003
     86  CE2       77.8580   25.5260   -2.4630 C.ar  124  PHE124     -0.0003
     87  CZ        77.1950   25.1740   -3.6440 C.ar  124  PHE124     -0.0000
     88  N         82.2400   32.7230   -7.7230 N.3   182  LYS182     -0.1245
     89  CA        82.4590   31.3210   -8.0640 C.3   182  LYS182      0.1561
     90  C         82.0270   30.9310   -9.4650 C.2   182  LYS182      0.2260
     91  O         80.8380   30.9360   -9.7890 O.2   182  LYS182     -0.2867
     92  CB        81.7330   30.4340   -7.0550 C.3   182  LYS182      0.0271
     93  CG        81.9460   28.9500   -7.2620 C.3   182  LYS182      0.0035
     94  CD        81.3640   28.1430   -6.1040 C.3   182  LYS182      0.0206
     95  CE        79.8580   28.2630   -6.0460 C.3   182  LYS182      0.1093
     96  NZ        79.2230   27.7090   -7.2870 N.3   182  LYS182     -0.1314
     97  N         82.1770   27.8350  -11.3690 N.3   184  MET184     -0.1245
     98  CA        82.3410   26.3850  -11.4310 C.3   184  MET184      0.1570
     99  C         82.4370   25.8310  -12.8560 C.2   184  MET184      0.2261
    100  O         83.1290   24.8360  -13.1030 O.2   184  MET184     -0.2867
    101  CB        81.1790   25.7080  -10.6910 C.3   184  MET184      0.0387
    102  CG        81.1780   24.1680  -10.7370 C.3   184  MET184      0.0595
    103  SD        80.5550   23.3940  -12.2850 S.3   184  MET184     -0.1393
    104  CE        80.6710   21.6360  -11.8290 C.3   184  MET184      0.0692
    105  N         87.1370   32.2690   -7.8010 N.3   213  HIS213     -0.1241
    106  CA        87.2760   30.8120   -7.9440 C.3   213  HIS213      0.1621
    107  C         86.8830   30.3800   -9.3570 C.2   213  HIS213      0.2264
    108  O         85.6980   30.2090   -9.6530 O.2   213  HIS213     -0.2867
    109  CB        86.3610   30.1130   -6.9220 C.3   213  HIS213      0.0745
    110  CG        86.3570   28.6130   -6.9990 C.ar  213  HIS213      0.0817
    111  ND1       87.2340   27.8290   -6.2850 N.ar  213  HIS213     -0.2268
    112  CD2       85.5290   27.7520   -7.6410 C.ar  213  HIS213      0.1154
    113  CE1       86.9440   26.5510   -6.4750 C.ar  213  HIS213      0.1986
    114  NE2       85.9120   26.4770   -7.2940 N.ar  213  HIS213     -0.2212
    115  N         87.2670   27.5870  -12.5470 N.3   215  HIS215     -0.1241
    116  CA        87.7250   26.2820  -12.9740 C.3   215  HIS215      0.1621
    117  C         88.3570   26.5520  -14.3500 C.2   215  HIS215      0.2264
    118  O         88.1900   27.6480  -14.9130 O.2   215  HIS215     -0.2867
    119  CB        86.5520   25.2830  -13.0390 C.3   215  HIS215      0.0745
    120  CG        86.1170   24.7740  -11.6880 C.ar  215  HIS215      0.0817
    121  ND1       86.1400   23.4390  -11.3500 N.ar  215  HIS215     -0.2268
    122  CD2       85.6920   25.4290  -10.5800 C.ar  215  HIS215      0.1154
    123  CE1       85.7520   23.2920  -10.0950 C.ar  215  HIS215      0.1986
    124  NE2       85.4760   24.4840   -9.6040 N.ar  215  HIS215     -0.2212
    125  N         74.4520   24.5060  -11.8940 N.3   346  VAL346     -0.1231
    126  CA        75.3750   23.8230  -11.0010 C.3   346  VAL346      0.1692
    127  C         74.5040   22.8740  -10.1690 C.2   346  VAL346      0.2592
    128  O         73.2810   23.0410  -10.1160 O.2   346  VAL346     -0.2718
    129  CB        76.0680   24.8260  -10.0510 C.3   346  VAL346      0.0266
    130  CG1       76.7480   25.8970  -10.8520 C.3   346  VAL346      0.0020
    131  CG2       75.0450   25.4550   -9.1100 C.3   346  VAL346      0.0020
    132  N         75.1140   21.8790   -9.5360 N.am  347  THR347     -0.1953
    133  CA        74.3550   20.9530   -8.7060 C.3   347  THR347      0.1897
    134  C         73.6860   21.7690   -7.6050 C.2   347  THR347      0.2313
    135  O         74.3360   22.6210   -6.9950 O.2   347  THR347     -0.2863
    136  CB        75.2750   19.9310   -8.0370 C.3   347  THR347      0.1794
    137  OG1       76.0060   19.2180   -9.0410 O.3   347  THR347     -0.2208
    138  CG2       74.4600   18.9550   -7.2030 C.3   347  THR347      0.0378
@<TRIPOS>BOND
     1   118   117    2
     2   117   116    1
     3   100    99    2
     4   119   116    1
     5   119   120    1
     6   116   115    1
     7    99    98    1
     8   103   104    1
     9   103   102    1
    10   125   126    1
    11   120   121   ar
    12   120   122   ar
    13    98    97    1
    14    98   101    1
    15   121   123   ar
    16   126   127    1
    17   126   129    1
    18   130   129    1
    19   102   101    1
    20   122   124   ar
    21   127   128    2
    22   127   132   am
    23   123   124   ar
    24   129   131    1
    25    91    90    2
    26   108   107    2
    27   132   133    1
    28    90    89    1
    29   107   106    1
    30   137   136    1
    31   133   136    1
    32   133   134    1
    33    23    22    2
    34    89    88    1
    35    89    92    1
    36   136   138    1
    37   106   105    1
    38   106   109    1
    39    22    21    1
    40   112   114   ar
    41   112   110   ar
    42   134   135    2
    43   114   113   ar
    44    96    95    1
    45    93    92    1
    46    93    94    1
    47    15    14    2
    48   110   109    1
    49   110   111   ar
    50    18    17   ar
    51    19    17   ar
    52   113   111   ar
    53    21    20    1
    54    21    24    1
    55    17    16    1
    56    14    13    1
    57    94    95    1
    58    25    24    1
    59    25    26    1
    60    28    26   am
    61    16    13    1
    62    26    27    2
    63    13    12    1
    64    85    83   ar
    65    85    87   ar
    66    83    82   ar
    67     4     3    2
    68    12     3   am
    69    87    86   ar
    70    11     9    1
    71    75    74    1
    72    10     9    1
    73    46    43    1
    74     3     2    1
    75     9     8    2
    76    82    81    1
    77    82    84   ar
    78    76    74    1
    79    74    73    2
    80    54    52    1
    81    81    78    1
    82    86    84   ar
    83    37    35   ar
    84     8     7    1
    85    73    72    1
    86    36    35   ar
    87    72    71    1
    88    53    52    1
    89    65    63    1
    90    43    42    1
    91    43    44    1
    92    35    34    1
    93    42    40   am
    94     2     1    1
    95     2     5    1
    96     7     6    1
    97    79    78    1
    98    79    80    2
    99    52    51    1
   100    78    77    1
   101    62    63    2
   102    62    61    1
   103    63    64    1
   104    45    44    2
   105    39    40    1
   106    39    38    1
   107    40    41    2
   108    71    70    1
   109     5     6    1
   110    59    60    1
   111    59    56    1
   112    51    48    1
   113    61    60    1
   114    33    34    1
   115    33    30    1
   116    56    57    1
   117    56    55    1
   118    32    31    2
   119    70    67    1
   120    48    49    1
   121    48    47    1
   122    30    29    1
   123    30    31    1
   124    57    58    2
   125    69    68    2
   126    49    50    2
   127    68    67    1
   128    67    66    1
