@<TRIPOS>MOLECULE
tmp/1rqfB00.pdb
 88 81 0 0 0
SMALL
GASTEIGER

@<TRIPOS>ATOM
      1  N        100.6570  113.7460   20.6900 N.3    34  LEU34      -0.1245
      2  CA       100.3580  112.5140   21.4050 C.3    34  LEU34       0.1561
      3  C         98.9770  112.5340   22.0290 C.2    34  LEU34       0.2260
      4  O         98.2780  111.5220   22.0220 O.2    34  LEU34      -0.2867
      5  CB       101.4030  112.2580   22.4900 C.3    34  LEU34       0.0270
      6  CG       102.8250  112.0480   21.9640 C.3    34  LEU34       0.0019
      7  CD1      103.7900  111.8270   23.1260 C.3    34  LEU34       0.0001
      8  CD2      102.8460  110.8590   21.0050 C.3    34  LEU34       0.0001
      9  N         96.0840  110.6520   20.4430 N.3    37  GLN37      -0.1245
     10  CA        96.2710  109.2510   20.0730 C.3    37  GLN37       0.1566
     11  C         95.8410  108.3000   21.1830 C.2    37  GLN37       0.2260
     12  O         95.5960  107.1180   20.9350 O.2    37  GLN37      -0.2867
     13  CB        97.7310  108.9690   19.7450 C.3    37  GLN37       0.0367
     14  CG        98.2380  109.6580   18.5070 C.3    37  GLN37       0.0905
     15  CD        99.6390  109.2150   18.1520 C.2    37  GLN37       0.2608
     16  OE1       99.8990  108.0200   17.9780 O.2    37  GLN37      -0.2717
     17  NE2      100.5530  110.1720   18.0430 N.am   37  GLN37      -0.0878
     18  N        104.3500  105.7460   23.9860 N.3    69  LEU69      -0.1245
     19  CA       104.4970  106.7130   22.9100 C.3    69  LEU69       0.1561
     20  C        105.5090  107.7990   23.2620 C.2    69  LEU69       0.2260
     21  O        106.2690  108.2460   22.4140 O.2    69  LEU69      -0.2867
     22  CB       103.1440  107.3390   22.5830 C.3    69  LEU69       0.0270
     23  CG       102.0740  106.3470   22.1130 C.3    69  LEU69       0.0019
     24  CD1      100.7820  107.0980   21.8260 C.3    69  LEU69       0.0001
     25  CD2      102.5370  105.6110   20.8620 C.3    69  LEU69       0.0001
     26  N        109.0180  106.4080   23.0050 N.3    72  ALA72      -0.1231
     27  CA       109.4590  106.3560   21.6240 C.3    72  ALA72       0.1694
     28  C        110.1420  107.6420   21.1920 C.2    72  ALA72       0.2591
     29  O        111.2100  107.6120   20.5930 O.2    72  ALA72      -0.2718
     30  CB       108.2780  106.0560   20.7230 C.3    72  ALA72       0.0304
     31  N        109.5220  108.7730   21.4810 N.am   73  ARG73      -0.1980
     32  CA       110.1100  110.0510   21.1140 C.3    73  ARG73       0.1597
     33  C        111.3370  110.2980   21.9860 C.2    73  ARG73       0.2287
     34  O        112.4120  110.6230   21.4940 O.2    73  ARG73      -0.2864
     35  CB       109.0980  111.1680   21.3280 C.3    73  ARG73       0.0334
     36  CG       107.7630  110.9590   20.6440 C.3    73  ARG73       0.0492
     37  CD       106.9350  112.1930   20.8750 C.3    73  ARG73       0.2205
     38  NE       105.6370  112.1210   20.2320 N.pl3  73  ARG73      -0.0865
     39  CZ       104.9440  113.1970   19.8720 C.cat  73  ARG73       0.5346
     40  NH1      105.4510  114.4090   20.0990 N.pl3  73  ARG73       0.1354
     41  NH2      103.7520  113.0650   19.2870 N.pl3  73  ARG73       0.1354
     42  N        115.0240  109.3020   21.2770 N.3    76  LEU76      -0.1245
     43  CA       115.6140  109.8290   20.0480 C.3    76  LEU76       0.1561
     44  C        116.3770  111.0960   20.4180 C.2    76  LEU76       0.2260
     45  O        117.2060  111.5900   19.6510 O.2    76  LEU76      -0.2867
     46  CB       114.5350  110.1610   19.0290 C.3    76  LEU76       0.0270
     47  CG       113.8200  108.9470   18.4520 C.3    76  LEU76       0.0019
     48  CD1      112.6330  109.3890   17.5940 C.3    76  LEU76       0.0001
     49  CD2      114.8140  108.1370   17.6450 C.3    76  LEU76       0.0001
     50  N        105.7950  101.8290   13.5030 N.3   113  ASP113     -0.1239
     51  CA       105.6180  102.9230   14.4480 C.3   113  ASP113      0.1674
     52  C        104.1610  103.0660   14.8440 C.2   113  ASP113      0.2266
     53  O        103.8150  103.9210   15.6480 O.2   113  ASP113     -0.2867
     54  CB       106.1240  104.2260   13.8500 C.3   113  ASP113      0.1410
     55  CG       107.6060  104.1800   13.5340 C.2   113  ASP113      0.3668
     56  OD1      108.3970  103.9090   14.4580 O.co2 113  ASP113     -0.2456
     57  OD2      107.9840  104.4140   12.3650 O.co2 113  ASP113     -0.2456
     58  N        106.1390   99.7550   18.8400 N.3   144  ALA144     -0.1245
     59  CA       105.9540  101.1600   18.5300 C.3   144  ALA144      0.1562
     60  C        106.5060  102.0290   19.6420 C.2   144  ALA144      0.2260
     61  O        106.7470  103.2220   19.4470 O.2   144  ALA144     -0.2867
     62  CB       104.4850  101.4500   18.3320 C.3   144  ALA144      0.0290
     63  N        109.3300  101.8160   20.7840 N.3   146  PHE146     -0.1227
     64  CA       110.7610  101.9080   20.5430 C.3   146  PHE146      0.1736
     65  C        111.0570  102.4700   19.1670 C.2   146  PHE146      0.2596
     66  O        112.1480  102.9630   18.9150 O.2   146  PHE146     -0.2718
     67  CB       111.4140  100.5460   20.7070 C.3   146  PHE146      0.0547
     68  CG       111.2030   99.9600   22.0590 C.ar  146  PHE146     -0.0202
     69  CD1      109.9860   99.3600   22.3900 C.ar  146  PHE146     -0.0042
     70  CD2      112.1860  100.0760   23.0370 C.ar  146  PHE146     -0.0042
     71  CE1      109.7440   98.8840   23.6920 C.ar  146  PHE146     -0.0003
     72  CE2      111.9600   99.6080   24.3420 C.ar  146  PHE146     -0.0003
     73  CZ       110.7300   99.0100   24.6720 C.ar  146  PHE146     -0.0000
     74  N        110.0880  102.3950   18.2680 N.am  147  GLY147     -0.1942
     75  CA       110.2920  102.9520   16.9390 C.3   147  GLY147      0.2014
     76  C        111.1700  102.1770   15.9720 C.2   147  GLY147      0.2640
     77  O        111.9420  101.3060   16.3510 O.2   147  GLY147     -0.2714
     78  N        111.0510  102.5140   14.6970 N.am  148  THR148     -0.1936
     79  CA       111.8160  101.8400   13.6610 C.3   148  THR148      0.2028
     80  C        113.1660  102.4790   13.4430 C.2   148  THR148      0.2642
     81  O        114.0430  101.8810   12.8400 O.2   148  THR148     -0.2714
     82  CB       111.0670  101.8590   12.3200 C.3   148  THR148      0.1808
     83  OG1      110.8060  103.2140   11.9480 O.3   148  THR148     -0.2208
     84  CG2      109.7380  101.1080   12.4290 C.3   148  THR148      0.0379
     85  N        113.3460  103.6930   13.9370 N.am  149  GLY149     -0.1954
     86  CA       114.6200  104.3460   13.7260 C.3   149  GLY149      0.1869
     87  C        115.5030  104.5390   14.9400 C.2   149  GLY149      0.2309
     88  O        116.5340  105.2040   14.8410 O.2   149  GLY149     -0.2863
@<TRIPOS>BOND
     1    83    82    1
     2    82    84    1
     3    82    79    1
     4    57    55   ar
     5    81    80    2
     6    80    79    1
     7    80    85   am
     8    50    51    1
     9    55    54    1
    10    55    56   ar
    11    79    78    1
    12    86    85    1
    13    86    87    1
    14    54    51    1
    15    51    52    1
    16    78    76   am
    17    88    87    2
    18    52    53    2
    19    76    77    2
    20    76    75    1
    21    75    74    1
    22    48    47    1
    23    49    47    1
    24    16    15    2
    25    17    15   am
    26    15    14    1
    27    74    65   am
    28    62    59    1
    29    47    46    1
    30    14    13    1
    31    59    58    1
    32    59    60    1
    33    66    65    2
    34    46    43    1
    35    65    64    1
    36    41    39    1
    37    61    60    2
    38    45    44    2
    39    13    10    1
    40    39    40    1
    41    39    38    2
    42    43    44    1
    43    43    42    1
    44    10     9    1
    45    10    11    1
    46    38    37    1
    47    64    67    1
    48    64    63    1
    49    29    28    2
    50    36    37    1
    51    36    35    1
    52     1     2    1
    53    67    68    1
    54    30    27    1
    55    25    23    1
    56    12    11    2
    57     8     6    1
    58    32    35    1
    59    32    31    1
    60    32    33    1
    61    28    31   am
    62    28    27    1
    63     2     3    1
    64     2     5    1
    65    34    33    2
    66    27    26    1
    67    24    23    1
    68     6     5    1
    69     6     7    1
    70     4     3    2
    71    68    69   ar
    72    68    70   ar
    73    23    22    1
    74    69    71   ar
    75    21    20    2
    76    22    19    1
    77    19    20    1
    78    19    18    1
    79    70    72   ar
    80    71    73   ar
    81    72    73   ar
