@<TRIPOS>MOLECULE
tmp/1rqfG01.pdb
 80 79 0 0 0
SMALL
GASTEIGER

@<TRIPOS>ATOM
      1  N         97.2700   67.8010   31.9150 N.3   119  LEU119     -0.1245
      2  CA        98.1230   67.5540   33.0630 C.3   119  LEU119      0.1561
      3  C         99.2820   68.5470   33.0120 C.2   119  LEU119      0.2260
      4  O        100.0000   68.7330   33.9940 O.2   119  LEU119     -0.2867
      5  CB        98.6590   66.1290   33.0390 C.3   119  LEU119      0.0270
      6  CG        97.5870   65.0490   33.1920 C.3   119  LEU119      0.0019
      7  CD1       98.1910   63.6530   33.0030 C.3   119  LEU119      0.0001
      8  CD2       96.9580   65.1700   34.5560 C.3   119  LEU119      0.0001
      9  N        103.8180   67.5380   26.3060 N.3   125  GLU125     -0.1231
     10  CA       104.0100   66.8890   27.5920 C.3   125  GLU125      0.1699
     11  C        103.1180   65.6740   27.7610 C.2   125  GLU125      0.2592
     12  O        103.6000   64.5530   27.9290 O.2   125  GLU125     -0.2718
     13  CB       103.7550   67.8760   28.7290 C.3   125  GLU125      0.0402
     14  CG       104.8100   68.9490   28.8530 C.3   125  GLU125      0.1161
     15  CD       106.1970   68.3630   28.9850 C.2   125  GLU125      0.3649
     16  OE1      106.4080   67.5490   29.9100 O.co2 125  GLU125     -0.2457
     17  OE2      107.0720   68.7120   28.1650 O.co2 125  GLU125     -0.2457
     18  N        101.8120   65.8920   27.7030 N.am  126  ALA126     -0.1966
     19  CA       100.8730   64.8000   27.8770 C.3   126  ALA126      0.1728
     20  C         99.6230   65.0290   27.0480 C.2   126  ALA126      0.2616
     21  O         99.3300   66.1500   26.6550 O.2   126  ALA126     -0.2715
     22  CB       100.5150   64.6770   29.3360 C.3   126  ALA126      0.0334
     23  N         98.8920   63.9570   26.7800 N.am  127  MET127     -0.1963
     24  CA        97.6760   64.0530   25.9970 C.3   127  MET127      0.1736
     25  C         96.5320   64.4440   26.9220 C.2   127  MET127      0.2616
     26  O         96.6400   64.3090   28.1400 O.2   127  MET127     -0.2715
     27  CB        97.4020   62.7200   25.3150 C.3   127  MET127      0.0427
     28  CG        98.5520   62.2290   24.4430 C.3   127  MET127      0.0599
     29  SD        98.8420   63.1960   22.9380 S.3   127  MET127     -0.1393
     30  CE       100.0000   64.4640   23.5220 C.3   127  MET127      0.0692
     31  N         95.4350   64.9200   26.3410 N.am  128  VAL128     -0.1963
     32  CA        94.2840   65.3610   27.1210 C.3   128  VAL128      0.1727
     33  C         93.6580   64.2810   27.9890 C.2   128  VAL128      0.2616
     34  O         93.5260   63.1300   27.5890 O.2   128  VAL128     -0.2715
     35  CB        93.1900   65.9650   26.2060 C.3   128  VAL128      0.0290
     36  CG1       92.5960   64.8900   25.3150 C.3   128  VAL128      0.0023
     37  CG2       92.1200   66.6540   27.0550 C.3   128  VAL128      0.0023
     38  N         93.2740   64.6760   29.1910 N.am  129  LYS129     -0.1977
     39  CA        92.6460   63.7670   30.1350 C.3   129  LYS129      0.1596
     40  C         91.2530   64.2870   30.5090 C.2   129  LYS129      0.2287
     41  O         90.8630   65.3940   30.1340 O.2   129  LYS129     -0.2864
     42  CB        93.5030   63.6570   31.3880 C.3   129  LYS129      0.0298
     43  CG        94.9120   63.1920   31.1240 C.3   129  LYS129      0.0038
     44  CD        94.8970   61.8160   30.5250 C.3   129  LYS129      0.0206
     45  CE        96.2960   61.2810   30.3520 C.3   129  LYS129      0.1093
     46  NZ        96.2480   59.8570   29.9290 N.3   129  LYS129     -0.1314
     47  N         91.7010   58.7120   31.8220 N.3   140  THR140     -0.1204
     48  CA        92.1280   58.6410   30.4390 C.3   140  THR140      0.1979
     49  C         90.8740   58.3550   29.6090 C.2   140  THR140      0.2459
     50  O         90.0620   57.4900   29.9630 O.2   140  THR140     -0.2732
     51  CB        93.1110   57.4940   30.2290 C.3   140  THR140      0.1783
     52  OG1       94.2770   57.7250   31.0190 O.3   140  THR140     -0.2211
     53  CG2       93.5030   57.3860   28.7740 C.3   140  THR140      0.0376
     54  N         90.6840   59.0840   28.5020 N.am  141  PRO141     -0.2728
     55  CA        89.5260   58.8890   27.6390 C.3   141  PRO141      0.1401
     56  C         89.3910   57.4240   27.2030 C.2   141  PRO141      0.2269
     57  O         90.3790   56.7920   26.8130 O.2   141  PRO141     -0.2865
     58  CB        89.8300   59.8140   26.4700 C.3   141  PRO141      0.0296
     59  CG        90.5130   60.9230   27.1150 C.3   141  PRO141      0.0237
     60  CD        91.4890   60.2080   28.0110 C.3   141  PRO141      0.0939
     61  N         90.9770   59.7910   21.0160 N.3   146  HIS146     -0.1226
     62  CA        91.3800   60.9940   21.7420 C.3   146  HIS146      0.1752
     63  C         92.7750   60.9140   22.3360 C.2   146  HIS146      0.2596
     64  O         93.2040   61.8080   23.0520 O.2   146  HIS146     -0.2718
     65  CB        90.3850   61.2710   22.8590 C.3   146  HIS146      0.0759
     66  CG        89.0000   61.5360   22.3760 C.ar  146  HIS146      0.0818
     67  ND1       87.9240   60.7680   22.7610 N.ar  146  HIS146     -0.2268
     68  CD2       88.5120   62.4820   21.5390 C.ar  146  HIS146      0.1154
     69  CE1       86.8310   61.2290   22.1790 C.ar  146  HIS146      0.1986
     70  NE2       87.1610   62.2680   21.4320 N.ar  146  HIS146     -0.2212
     71  N         93.4920   59.8490   22.0280 N.am  147  HIS147     -0.1975
     72  CA        94.8220   59.6490   22.5830 C.3   147  HIS147      0.1656
     73  C         95.9480   60.3860   21.8940 C.2   147  HIS147      0.2291
     74  O         97.1130   60.1190   22.1610 O.2   147  HIS147     -0.2864
     75  CB        95.1180   58.1570   22.6270 C.3   147  HIS147      0.0771
     76  CG        94.2370   57.4150   23.5710 C.ar  147  HIS147      0.0820
     77  ND1       94.1450   56.0420   23.5810 N.ar  147  HIS147     -0.2267
     78  CD2       93.4190   57.8550   24.5570 C.ar  147  HIS147      0.1154
     79  CE1       93.3050   55.6660   24.5340 C.ar  147  HIS147      0.1986
     80  NE2       92.8510   56.7490   25.1410 N.ar  147  HIS147     -0.2212
@<TRIPOS>BOND
     1    61    62    1
     2    70    68   ar
     3    70    69   ar
     4    68    66   ar
     5    62    63    1
     6    62    65    1
     7    73    74    2
     8    73    72    1
     9    71    63   am
    10    71    72    1
    11    69    67   ar
    12    63    64    2
    13    66    67   ar
    14    66    65    1
    15    72    75    1
    16    75    76    1
    17    29    30    1
    18    29    28    1
    19    76    77   ar
    20    76    78   ar
    21    77    79   ar
    22    28    27    1
    23    79    80   ar
    24    78    80   ar
    25    27    24    1
    26    36    35    1
    27    24    23    1
    28    24    25    1
    29    35    37    1
    30    35    32    1
    31     9    10    1
    32    31    25   am
    33    31    32    1
    34    58    59    1
    35    58    55    1
    36    21    20    2
    37    23    20   am
    38    57    56    2
    39    25    26    2
    40    20    19    1
    41    59    60    1
    42    32    33    1
    43    56    55    1
    44    34    33    2
    45    10    11    1
    46    10    13    1
    47    55    54    1
    48    18    11   am
    49    18    19    1
    50    11    12    2
    51    19    22    1
    52    33    38   am
    53    60    54    1
    54    17    15   ar
    55    54    49   am
    56    13    14    1
    57    53    51    1
    58    14    15    1
    59    15    16   ar
    60    38    39    1
    61    49    50    2
    62    49    48    1
    63    46    45    1
    64    41    40    2
    65    39    40    1
    66    39    42    1
    67    51    48    1
    68    51    52    1
    69    45    44    1
    70    48    47    1
    71    44    43    1
    72    43    42    1
    73     1     2    1
    74     7     6    1
    75     3     2    1
    76     3     4    2
    77     5     2    1
    78     5     6    1
    79     6     8    1
