@<TRIPOS>MOLECULE
tmp/1rqiA02.pdb
 79 74 0 0 0
SMALL
GASTEIGER

@<TRIPOS>ATOM
      1  N         60.4310   52.2970   -0.9960 N.3     7  GLN7       -0.1245
      2  CA        61.4890   52.3030    0.0140 C.3     7  GLN7        0.1566
      3  C         61.1120   53.2650    1.1240 C.2     7  GLN7        0.2260
      4  O         61.2350   52.9280    2.2890 O.2     7  GLN7       -0.2867
      5  CB        62.8500   52.6980   -0.5670 C.3     7  GLN7        0.0367
      6  CG        63.3970   51.7490   -1.6300 C.3     7  GLN7        0.0905
      7  CD        63.9730   50.4460   -1.0730 C.2     7  GLN7        0.2608
      8  OE1       63.6640   50.0420    0.0520 O.2     7  GLN7       -0.2717
      9  NE2       64.8070   49.7820   -1.8740 N.am    7  GLN7       -0.0878
     10  N         58.3630   51.6410    3.2790 N.3    10  ALA10      -0.1231
     11  CA        58.9330   50.5480    4.0540 C.3    10  ALA10       0.1694
     12  C         59.7380   51.0980    5.2140 C.2    10  ALA10       0.2592
     13  O         59.7630   50.5120    6.2820 O.2    10  ALA10      -0.2718
     14  CB        59.8220   49.6850    3.1840 C.3    10  ALA10       0.0304
     15  N         60.4050   52.2250    4.9930 N.am   11  CYS11      -0.1970
     16  CA        61.1710   52.8820    6.0450 C.3    11  CYS11       0.1712
     17  C         60.2800   53.4840    7.1410 C.2    11  CYS11       0.2296
     18  O         60.6280   53.4070    8.3080 O.2    11  CYS11      -0.2864
     19  CB        62.0750   53.9600    5.4660 C.3    11  CYS11       0.0983
     20  SG        62.9430   54.8500    6.7700 S.3    11  CYS11      -0.0798
     21  N         59.0480   50.5660    9.2090 N.3    14  GLN14      -0.1245
     22  CA        60.1260   50.0050   10.0060 C.3    14  GLN14       0.1566
     23  C         60.4500   50.9350   11.1900 C.2    14  GLN14       0.2260
     24  O         60.6250   50.4610   12.3090 O.2    14  GLN14      -0.2867
     25  CB        61.3440   49.7160    9.1200 C.3    14  GLN14       0.0367
     26  CG        62.5770   49.2320    9.8470 C.3    14  GLN14       0.0905
     27  CD        62.5360   47.7700   10.2760 C.2    14  GLN14       0.2608
     28  OE1       63.1030   47.4320   11.3060 O.2    14  GLN14      -0.2717
     29  NE2       61.9020   46.9110    9.4880 N.am   14  GLN14      -0.0878
     30  N         65.4640   57.0540    7.6850 N.3    51  PHE51      -0.1241
     31  CA        65.8700   56.5750    6.3590 C.3    51  PHE51       0.1605
     32  C         67.3690   56.7520    6.2060 C.2    51  PHE51       0.2264
     33  O         68.0740   55.8350    5.7840 O.2    51  PHE51      -0.2867
     34  CB        65.1210   57.3240    5.2370 C.3    51  PHE51       0.0534
     35  CG        65.3410   56.7490    3.8480 C.ar   51  PHE51      -0.0203
     36  CD1       66.5710   56.8590    3.2180 C.ar   51  PHE51      -0.0042
     37  CD2       64.3100   56.1260    3.1720 C.ar   51  PHE51      -0.0042
     38  CE1       66.7800   56.3480    1.9390 C.ar   51  PHE51      -0.0003
     39  CE2       64.5040   55.6020    1.8900 C.ar   51  PHE51      -0.0003
     40  CZ        65.7490   55.7120    1.2760 C.ar   51  PHE51      -0.0000
     41  N         69.1890   54.1330    8.4160 N.3    54  TYR54      -0.1227
     42  CA        69.0780   52.7950    7.8250 C.3    54  TYR54       0.1736
     43  C         69.9260   52.6660    6.5790 C.2    54  TYR54       0.2595
     44  O         70.6470   51.6930    6.4210 O.2    54  TYR54      -0.2718
     45  CB        67.6400   52.4710    7.4390 C.3    54  TYR54       0.0548
     46  CG        66.7270   52.2130    8.6030 C.ar   54  TYR54      -0.0200
     47  CD1       67.0210   51.2240    9.5280 C.ar   54  TYR54      -0.0009
     48  CD2       65.5810   52.9620    8.7830 C.ar   54  TYR54      -0.0009
     49  CE1       66.1950   50.9910   10.6040 C.ar   54  TYR54       0.0417
     50  CE2       64.7510   52.7340    9.8510 C.ar   54  TYR54       0.0417
     51  CZ        65.0560   51.7360   10.7500 C.ar   54  TYR54       0.1957
     52  OH        64.2290   51.5080   11.8130 O.3    54  TYR54      -0.2866
     53  N         69.8400   53.6610    5.7050 N.am   55  ALA55      -0.1980
     54  CA        70.4910   53.5980    4.4140 C.3    55  ALA55       0.1597
     55  C         71.9970   53.5990    4.5960 C.2    55  ALA55       0.2287
     56  O         72.7110   52.8710    3.8890 O.2    55  ALA55      -0.2864
     57  CB        70.0510   54.7700    3.5370 C.3    55  ALA55       0.0319
     58  N         73.1660   50.2590    6.3030 N.3    58  HIS58      -0.1241
     59  CA        73.0050   49.2070    5.3020 C.3    58  HIS58       0.1621
     60  C         74.1570   49.1450    4.3220 C.2    58  HIS58       0.2264
     61  O         74.5130   48.0690    3.8600 O.2    58  HIS58      -0.2867
     62  CB        71.7140   49.4330    4.5250 C.3    58  HIS58       0.0745
     63  CG        70.4990   48.9400    5.2340 C.ar   58  HIS58       0.0817
     64  ND1       69.2280   49.2410    4.8080 N.ar   58  HIS58      -0.2268
     65  CD2       70.3600   48.1630    6.3350 C.ar   58  HIS58       0.1154
     66  CE1       68.3530   48.6520    5.6050 C.ar   58  HIS58       0.1986
     67  NE2       69.0150   48.0000    6.5460 N.ar   58  HIS58      -0.2212
     68  N         69.4320   45.7740    9.9570 N.3    64  THR64      -0.1218
     69  CA        68.3000   46.6660   10.1810 C.3    64  THR64       0.1862
     70  C         67.8210   46.7120   11.6360 C.2    64  THR64       0.2287
     71  O         67.4560   47.7760   12.1230 O.2    64  THR64      -0.2866
     72  CB        67.1220   46.2800    9.2860 C.3    64  THR64       0.1770
     73  OG1       67.5410   46.2630    7.9220 O.3    64  THR64      -0.2211
     74  CG2       66.0440   47.3890    9.3200 C.3    64  THR64       0.0375
     75  N         70.6620   54.3340   -2.5120 N.3   287  ALA287     -0.1245
     76  CA        69.5950   54.7950   -1.6230 C.3   287  ALA287      0.1562
     77  C         69.8280   56.2330   -1.1540 C.2   287  ALA287      0.2260
     78  O         68.8800   56.9830   -1.0210 O.2   287  ALA287     -0.2867
     79  CB        69.4410   53.8620   -0.4300 C.3   287  ALA287      0.0290
@<TRIPOS>BOND
     1    75    76    1
     2     9     7   am
     3     6     7    1
     4     6     5    1
     5    76    77    1
     6    76    79    1
     7    77    78    2
     8     7     8    2
     9     1     2    1
    10     5     2    1
    11     2     3    1
    12     3     4    2
    13    40    39   ar
    14    40    38   ar
    15    39    37   ar
    16    38    36   ar
    17    37    35   ar
    18    14    11    1
    19    36    35   ar
    20    10    11    1
    21    57    54    1
    22    35    34    1
    23    61    60    2
    24    56    55    2
    25    11    12    1
    26    60    59    1
    27    54    55    1
    28    54    53    1
    29    62    63    1
    30    62    59    1
    31    64    63   ar
    32    64    66   ar
    33    15    12   am
    34    15    16    1
    35    12    13    2
    36    63    65   ar
    37    34    31    1
    38    59    58    1
    39    19    16    1
    40    19    20    1
    41    66    67   ar
    42    53    43   am
    43    33    32    2
    44    16    17    1
    45    32    31    1
    46    65    67   ar
    47    31    30    1
    48    44    43    2
    49    43    42    1
    50    17    18    2
    51    45    42    1
    52    45    46    1
    53    42    41    1
    54    73    72    1
    55    46    48   ar
    56    46    47   ar
    57    48    50   ar
    58    25    26    1
    59    25    22    1
    60    21    22    1
    61    72    74    1
    62    72    69    1
    63    29    27   am
    64    47    49   ar
    65    26    27    1
    66    50    51   ar
    67    68    69    1
    68    22    23    1
    69    69    70    1
    70    27    28    2
    71    49    51   ar
    72    51    52    1
    73    23    24    2
    74    70    71    2
