@<TRIPOS>MOLECULE
tmp/1rqiA01.pdb
 165 156 0 0 0
SMALL
GASTEIGER

@<TRIPOS>ATOM
      1  N         54.5670   62.0160    9.4140 N.3    45  GLY45      -0.1210
      2  CA        55.9950   62.2650    9.2760 C.3    45  GLY45       0.1956
      3  C         56.6210   61.3570    8.2270 C.2    45  GLY45       0.2612
      4  O         56.1710   60.2270    8.0200 O.2    45  GLY45      -0.2717
      5  N         57.6630   61.8410    7.5620 N.am   46  LYS46      -0.1965
      6  CA        58.2560   61.1240    6.4320 C.3    46  LYS46       0.1728
      7  C         59.3350   60.1160    6.8660 C.2    46  LYS46       0.2616
      8  O         59.6910   59.2220    6.1020 O.2    46  LYS46      -0.2715
      9  CB        58.8300   62.1090    5.4160 C.3    46  LYS46       0.0311
     10  CG        57.7960   63.0270    4.7960 C.3    46  LYS46       0.0038
     11  CD        58.4100   64.0200    3.8060 C.3    46  LYS46       0.0206
     12  CE        59.4600   64.9330    4.4380 C.3    46  LYS46       0.1093
     13  NZ        58.9000   65.6450    5.6280 N.3    46  LYS46      -0.1314
     14  N         59.8280   60.2690    8.0940 N.am   47  ARG47      -0.1963
     15  CA        60.8930   59.4430    8.6440 C.3    47  ARG47       0.1729
     16  C         62.1150   59.4180    7.7400 C.2    47  ARG47       0.2616
     17  O         62.7050   58.3520    7.4880 O.2    47  ARG47      -0.2715
     18  CB        60.4070   58.0240    8.9050 C.3    47  ARG47       0.0348
     19  CG        59.1590   57.9480    9.7170 C.3    47  ARG47       0.0492
     20  CD        59.3730   58.0040   11.1880 C.3    47  ARG47       0.2205
     21  NE        58.0860   57.8690   11.8640 N.pl3  47  ARG47      -0.0865
     22  CZ        57.2050   58.8550   12.0080 C.cat  47  ARG47       0.5346
     23  NH1       57.4740   60.0790   11.5810 N.pl3  47  ARG47       0.1354
     24  NH2       56.0510   58.6170   12.5990 N.pl3  47  ARG47       0.1354
     25  N         62.5060   60.6010    7.2720 N.am   48  LEU48      -0.1963
     26  CA        63.6700   60.7240    6.4180 C.3    48  LEU48       0.1728
     27  C         64.9580   60.5730    7.2270 C.2    48  LEU48       0.2616
     28  O         65.9320   60.0430    6.7370 O.2    48  LEU48      -0.2715
     29  CB        63.6380   62.0410    5.6400 C.3    48  LEU48       0.0311
     30  CG        62.6030   62.1230    4.5000 C.3    48  LEU48       0.0022
     31  CD1       62.8490   63.3360    3.6350 C.3    48  LEU48       0.0001
     32  CD2       62.5850   60.8700    3.6260 C.3    48  LEU48       0.0001
     33  N         64.9670   61.0150    8.4740 N.am   49  ARG49      -0.1977
     34  CA        66.1650   60.8690    9.3020 C.3    49  ARG49       0.1597
     35  C         66.4590   59.4040    9.6320 C.2    49  ARG49       0.2287
     36  O         67.6000   58.9740    9.5180 O.2    49  ARG49      -0.2864
     37  CB        66.0760   61.7210   10.5660 C.3    49  ARG49       0.0334
     38  CG        66.3640   63.1820   10.3060 C.3    49  ARG49       0.0492
     39  CD        65.8170   64.1290   11.3760 C.3    49  ARG49       0.2205
     40  NE        65.5210   65.4300   10.7930 N.pl3  49  ARG49      -0.0865
     41  CZ        64.4380   65.7030   10.0830 C.cat  49  ARG49       0.5346
     42  NH1       64.2730   66.9170    9.5900 N.pl3  49  ARG49       0.1354
     43  NH2       63.5030   64.7830    9.8800 N.pl3  49  ARG49       0.1354
     44  N         64.8240   59.9850   15.4790 N.3    75  GLU75      -0.1245
     45  CA        63.4300   60.3650   15.2800 C.3    75  GLU75       0.1567
     46  C         62.7920   60.8260   16.5730 C.2    75  GLU75       0.2260
     47  O         61.9240   61.6890   16.5520 O.2    75  GLU75      -0.2867
     48  CB        62.6180   59.2380   14.6530 C.3    75  GLU75       0.0388
     49  CG        61.2700   59.6700   14.0630 C.3    75  GLU75       0.1160
     50  CD        61.3820   60.7010   12.9470 C.2    75  GLU75       0.3649
     51  OE1       60.3630   61.3670   12.6450 O.co2  75  GLU75      -0.2457
     52  OE2       62.4760   60.8480   12.3600 O.co2  75  GLU75      -0.2457
     53  N         64.0580   64.4040   16.7040 N.3    78  HIS78      -0.1241
     54  CA        63.3440   65.1810   15.6870 C.3    78  HIS78       0.1621
     55  C         61.9260   65.5260   16.1430 C.2    78  HIS78       0.2264
     56  O         61.4810   66.6800   16.0200 O.2    78  HIS78      -0.2867
     57  CB        63.3100   64.3760   14.3930 C.3    78  HIS78       0.0745
     58  CG        62.4690   64.9600   13.3000 C.ar   78  HIS78       0.0817
     59  ND1       62.9000   65.9930   12.4980 N.ar   78  HIS78      -0.2268
     60  CD2       61.2510   64.6020   12.8250 C.ar   78  HIS78       0.1154
     61  CE1       61.9740   66.2650   11.5940 C.ar   78  HIS78       0.1986
     62  NE2       60.9650   65.4340   11.7670 N.ar   78  HIS78      -0.2212
     63  N         59.9770   69.2730   17.0400 N.3    82  LEU82      -0.1245
     64  CA        58.7870   69.7730   16.3590 C.3    82  LEU82       0.1561
     65  C         57.7300   70.1900   17.3640 C.2    82  LEU82       0.2260
     66  O         57.0810   71.2320   17.2090 O.2    82  LEU82      -0.2867
     67  CB        58.1880   68.6890   15.4720 C.3    82  LEU82       0.0270
     68  CG        59.0500   68.0470   14.3870 C.3    82  LEU82       0.0019
     69  CD1       58.1580   67.4480   13.3270 C.3    82  LEU82       0.0001
     70  CD2       60.0310   69.0280   13.7450 C.3    82  LEU82       0.0001
     71  N         50.1430   70.3650   12.0740 N.3    96  ARG96      -0.1231
     72  CA        51.3090   69.6170   11.6220 C.3    96  ARG96       0.1694
     73  C         50.9270   68.2000   11.2590 C.2    96  ARG96       0.2591
     74  O         50.2100   67.5440   11.9950 O.2    96  ARG96      -0.2718
     75  CB        52.4000   69.5800   12.6960 C.3    96  ARG96       0.0321
     76  CG        53.6730   68.9520   12.1900 C.3    96  ARG96       0.0489
     77  CD        54.7280   68.7340   13.2310 C.3    96  ARG96       0.2205
     78  NE        55.4050   69.9690   13.5760 N.pl3  96  ARG96      -0.0865
     79  CZ        56.2070   70.6420   12.7640 C.cat  96  ARG96       0.5346
     80  NH1       56.7600   71.7590   13.1900 N.pl3  96  ARG96       0.1354
     81  NH2       56.4780   70.2100   11.5420 N.pl3  96  ARG96       0.1354
     82  N         51.4610   67.7350   10.1330 N.am   97  ARG97      -0.1980
     83  CA        51.2440   66.3820    9.5970 C.3    97  ARG97       0.1597
     84  C         49.7850   66.0960    9.2610 C.2    97  ARG97       0.2287
     85  O         49.3770   64.9480    9.2340 O.2    97  ARG97      -0.2864
     86  CB        51.8120   65.3190   10.5510 C.3    97  ARG97       0.0334
     87  CG        53.3040   65.2600   10.5540 C.3    97  ARG97       0.0492
     88  CD        53.8720   64.6780   11.8080 C.3    97  ARG97       0.2205
     89  NE        55.3200   64.5540   11.7100 N.pl3  97  ARG97      -0.0865
     90  CZ        56.0930   64.0420   12.6450 C.cat  97  ARG97       0.5346
     91  NH1       55.5780   63.5830   13.7750 N.pl3  97  ARG97       0.1354
     92  NH2       57.4040   63.9690   12.4360 N.pl3  97  ARG97       0.1354
     93  N         70.1440   74.2630   12.9040 N.3   182  LYS182     -0.1231
     94  CA        68.8120   73.8520   13.3430 C.3   182  LYS182      0.1693
     95  C         68.3510   72.6010   12.6350 C.2   182  LYS182      0.2592
     96  O         67.6150   71.8250   13.2230 O.2   182  LYS182     -0.2718
     97  CB        67.7730   74.9750   13.2210 C.3   182  LYS182      0.0285
     98  CG        67.1680   75.1710   11.8700 C.3   182  LYS182      0.0035
     99  CD        66.0660   76.2120   11.9150 C.3   182  LYS182      0.0206
    100  CE        65.4260   76.4090   10.5430 C.3   182  LYS182      0.1093
    101  NZ        64.1460   77.1900   10.5740 N.3   182  LYS182     -0.1314
    102  N         68.8100   72.3920   11.4020 N.am  183  THR183     -0.1953
    103  CA        68.3550   71.2780   10.5700 C.3   183  THR183      0.1897
    104  C         69.4790   70.3680   10.1250 C.2   183  THR183      0.2313
    105  O         69.3300   69.1520   10.1430 O.2   183  THR183     -0.2863
    106  CB        67.6460   71.8250    9.3350 C.3   183  THR183      0.1794
    107  OG1       66.4360   72.4680    9.7410 O.3   183  THR183     -0.2208
    108  CG2       67.1840   70.7110    8.4010 C.3   183  THR183      0.0378
    109  N         67.8800   70.3760    2.7470 N.3   220  PHE220     -0.1227
    110  CA        66.6370   70.0160    3.3970 C.3   220  PHE220      0.1736
    111  C         65.8800   71.2410    3.8240 C.2   220  PHE220      0.2595
    112  O         64.6890   71.3620    3.5530 O.2   220  PHE220     -0.2718
    113  CB        66.8670   69.1340    4.6270 C.3   220  PHE220      0.0547
    114  CG        65.6050   68.5060    5.1290 C.ar  220  PHE220     -0.0202
    115  CD1       65.2010   67.2770    4.6610 C.ar  220  PHE220     -0.0042
    116  CD2       64.7890   69.1740    6.0210 C.ar  220  PHE220     -0.0042
    117  CE1       64.0210   66.7040    5.0960 C.ar  220  PHE220     -0.0003
    118  CE2       63.6100   68.6160    6.4540 C.ar  220  PHE220     -0.0003
    119  CZ        63.2260   67.3710    5.9920 C.ar  220  PHE220     -0.0000
    120  N         66.5800   72.1400    4.5090 N.am  221  GLN221     -0.1979
    121  CA        65.9560   73.3260    5.0580 C.3   221  GLN221      0.1601
    122  C         65.6260   74.3910    4.0100 C.2   221  GLN221      0.2287
    123  O         64.6420   75.1180    4.1770 O.2   221  GLN221     -0.2864
    124  CB        66.8230   73.9240    6.1600 C.3   221  GLN221      0.0394
    125  CG        66.1390   75.0200    6.9650 C.3   221  GLN221      0.0908
    126  CD        64.7800   74.6220    7.5010 C.2   221  GLN221      0.2608
    127  OE1       64.6480   73.5980    8.1600 O.2   221  GLN221     -0.2717
    128  NE2       63.7720   75.4470    7.2390 N.am  221  GLN221     -0.0878
    129  N         62.5140   73.1540    2.5430 N.3   224  ASP224     -0.1239
    130  CA        61.4680   73.4290    3.5350 C.3   224  ASP224      0.1674
    131  C         61.0070   74.8940    3.5370 C.2   224  ASP224      0.2266
    132  O         59.8440   75.1750    3.7970 O.2   224  ASP224     -0.2867
    133  CB        61.9480   73.0720    4.9440 C.3   224  ASP224      0.1410
    134  CG        60.8740   73.2800    5.9860 C.2   224  ASP224      0.3668
    135  OD1       59.8680   72.5330    5.9630 O.co2 224  ASP224     -0.2456
    136  OD2       60.9390   74.1770    6.8570 O.co2 224  ASP224     -0.2456
    137  N         50.9760   71.2560    7.0640 N.3   238  LYS238     -0.1245
    138  CA        51.2040   72.4460    7.8820 C.3   238  LYS238      0.1561
    139  C         50.8720   73.6930    7.0820 C.2   238  LYS238      0.2260
    140  O         50.7770   73.6490    5.8600 O.2   238  LYS238     -0.2867
    141  CB        52.6630   72.5220    8.3680 C.3   238  LYS238      0.0271
    142  CG        53.7090   72.2340    7.3120 C.3   238  LYS238      0.0035
    143  CD        55.0970   72.5460    7.8380 C.3   238  LYS238      0.0206
    144  CE        56.1750   72.2160    6.8180 C.3   238  LYS238      0.1093
    145  NZ        57.4780   71.8580    7.4700 N.3   238  LYS238     -0.1314
    146  N         60.6510   66.7530   -3.4500 N.3   298  ARG298     -0.1245
    147  CA        59.4610   66.4990   -2.6450 C.3   298  ARG298      0.1563
    148  C         58.5350   67.7070   -2.6090 C.2   298  ARG298      0.2260
    149  O         58.9610   68.8540   -2.7800 O.2   298  ARG298     -0.2867
    150  CB        59.8360   66.0680   -1.2240 C.3   298  ARG298      0.0307
    151  CG        60.5700   67.1210   -0.4060 C.3   298  ARG298      0.0489
    152  CD        61.3330   66.5770    0.7920 C.3   298  ARG298      0.2205
    153  NE        62.0750   67.6420    1.4680 N.pl3 298  ARG298     -0.0865
    154  CZ        61.6150   68.4100    2.4620 C.cat 298  ARG298      0.5346
    155  NH1       62.4050   69.3550    2.9560 N.pl3 298  ARG298      0.1354
    156  NH2       60.3950   68.2520    2.9620 N.pl3 298  ARG298      0.1354
    157  N         56.3220   67.8910    0.0540 N.3   300  LYS300     -0.1245
    158  CA        55.9760   67.9420    1.4840 C.3   300  LYS300      0.1561
    159  C         57.1180   67.4650    2.3980 C.2   300  LYS300      0.2260
    160  O         57.0480   67.5240    3.6340 O.2   300  LYS300     -0.2867
    161  CB        54.7300   67.1060    1.7760 C.3   300  LYS300      0.0271
    162  CG        54.8090   65.6270    1.3370 C.3   300  LYS300      0.0035
    163  CD        53.9220   64.7620    2.2260 C.3   300  LYS300      0.0206
    164  CE        53.4860   63.4990    1.5330 C.3   300  LYS300      0.1093
    165  NZ        54.6640   62.7930    0.9980 N.3   300  LYS300     -0.1314
@<TRIPOS>BOND
     1   146   147    1
     2   149   148    2
     3   147   148    1
     4   147   150    1
     5   150   151    1
     6   151   152    1
     7   157   158    1
     8   152   153    1
     9   165   164    1
    10   162   161    1
    11   162   163    1
    12   153   154    2
    13   158   161    1
    14   158   159    1
    15   164   163    1
    16   159   160    2
    17   154   155    1
    18   154   156    1
    19   129   130    1
    20   109   110    1
    21   110   111    1
    22   110   113    1
    23   130   131    1
    24   130   133    1
    25   131   132    2
    26   112   111    2
    27    32    30    1
    28    31    30    1
    29    11    12    1
    30    11    10    1
    31   111   120   am
    32   122   123    2
    33   122   121    1
    34    12    13    1
    35    30    29    1
    36   120   121    1
    37   113   114    1
    38   115   117   ar
    39   115   114   ar
    40    10     9    1
    41   133   134    1
    42   121   124    1
    43   117   119   ar
    44   114   116   ar
    45     9     6    1
    46    29    26    1
    47   140   139    2
    48   135   134   ar
    49   134   136   ar
    50   119   118   ar
    51   116   118   ar
    52     8     7    2
    53   124   125    1
    54    26    27    1
    55    26    25    1
    56     6     7    1
    57     6     5    1
    58    28    27    2
    59   144   145    1
    60   144   143    1
    61     7    14   am
    62   125   126    1
    63   137   138    1
    64   139   138    1
    65    27    33   am
    66   128   126   am
    67    25    16   am
    68   142   143    1
    69   142   141    1
    70    17    16    2
    71   126   127    2
    72     5     3   am
    73    16    15    1
    74   138   141    1
    75     4     3    2
    76    14    15    1
    77     3     2    1
    78   108   106    1
    79    33    34    1
    80    15    18    1
    81    18    19    1
    82    85    84    2
    83    84    83    1
    84     2     1    1
    85    34    35    1
    86    34    37    1
    87   106   107    1
    88   106   103    1
    89    36    35    2
    90    42    41    1
    91    83    82    1
    92    83    86    1
    93    19    20    1
    94    43    41    1
    95    41    40    2
    96   104   105    2
    97   104   103    1
    98    82    73   am
    99    38    37    1
   100    38    39    1
   101   100   101    1
   102   100    99    1
   103    86    87    1
   104    87    88    1
   105   103   102    1
   106    40    39    1
   107    20    21    1
   108    73    72    1
   109    73    74    2
   110   102    95   am
   111    81    79    1
   112    23    22    1
   113    61    62   ar
   114    61    59   ar
   115    72    71    1
   116    72    75    1
   117    89    88    1
   118    89    90    2
   119    62    60   ar
   120    21    22    2
   121    98    99    1
   122    98    97    1
   123    22    24    1
   124    76    75    1
   125    76    77    1
   126    52    50   ar
   127    92    90    1
   128    59    58   ar
   129    95    96    2
   130    95    94    1
   131    51    50   ar
   132    90    91    1
   133    79    80    1
   134    79    78    2
   135    60    58   ar
   136    93    94    1
   137    50    49    1
   138    97    94    1
   139    77    78    1
   140    58    57    1
   141    69    68    1
   142    70    68    1
   143    49    48    1
   144    68    67    1
   145    57    54    1
   146    48    45    1
   147    45    44    1
   148    45    46    1
   149    67    64    1
   150    54    55    1
   151    54    53    1
   152    56    55    2
   153    64    63    1
   154    64    65    1
   155    47    46    2
   156    66    65    2
