@<TRIPOS>MOLECULE
tmp/1rqiA00.pdb
 149 134 0 0 0
SMALL
GASTEIGER

@<TRIPOS>ATOM
      1  N         61.7360   68.0450   18.8580 N.3    81  SER81      -0.1202
      2  CA        62.0560   69.3660   18.3230 C.3    81  SER81       0.2020
      3  C         60.8530   70.0610   17.6690 C.2    81  SER81       0.2618
      4  O         60.7310   71.2850   17.7530 O.2    81  SER81      -0.2717
      5  CB        63.2270   69.2830   17.3470 C.3    81  SER81       0.2103
      6  OG        62.8080   68.8120   16.0820 O.3    81  SER81      -0.2182
      7  N         59.9770   69.2730   17.0400 N.am   82  LEU82      -0.1979
      8  CA        58.7870   69.7730   16.3590 C.3    82  LEU82       0.1596
      9  C         57.7300   70.1900   17.3640 C.2    82  LEU82       0.2287
     10  O         57.0810   71.2320   17.2090 O.2    82  LEU82      -0.2864
     11  CB        58.1880   68.6890   15.4720 C.3    82  LEU82       0.0297
     12  CG        59.0500   68.0470   14.3870 C.3    82  LEU82       0.0022
     13  CD1       58.1580   67.4480   13.3270 C.3    82  LEU82       0.0001
     14  CD2       60.0310   69.0280   13.7450 C.3    82  LEU82       0.0001
     15  N         58.7650   73.3430   18.7290 N.3    85  ASP85      -0.1225
     16  CA        58.8200   74.3340   17.6720 C.3    85  ASP85       0.1805
     17  C         57.4430   74.9560   17.4300 C.2    85  ASP85       0.2597
     18  O         57.3310   76.1570   17.2000 O.2    85  ASP85      -0.2718
     19  CB        59.3620   73.6700   16.4030 C.3    85  ASP85       0.1424
     20  CG        59.5230   74.6430   15.2490 C.2    85  ASP85       0.3668
     21  OD1       58.6110   74.6800   14.3760 O.co2  85  ASP85      -0.2456
     22  OD2       60.5380   75.3900   15.1460 O.co2  85  ASP85      -0.2456
     23  N         56.4020   74.1370   17.5260 N.am   86  ASP86      -0.1974
     24  CA        55.0240   74.5590   17.2990 C.3    86  ASP86       0.1709
     25  C         54.4080   75.3170   18.4790 C.2    86  ASP86       0.2293
     26  O         53.2460   75.7420   18.4040 O.2    86  ASP86      -0.2864
     27  CB        54.1560   73.3270   17.0320 C.3    86  ASP86       0.1436
     28  CG        54.5030   72.6260   15.7370 C.2    86  ASP86       0.3671
     29  OD1       54.3350   71.3860   15.6620 O.co2  86  ASP86      -0.2456
     30  OD2       54.9280   73.2370   14.7380 O.co2  86  ASP86      -0.2456
     31  N         56.8550   78.9670   17.2850 N.3    91  ASP91      -0.1239
     32  CA        56.2870   79.2630   15.9670 C.3    91  ASP91       0.1674
     33  C         54.7760   79.3960   15.9950 C.2    91  ASP91       0.2266
     34  O         54.1940   79.8470   15.0290 O.2    91  ASP91      -0.2867
     35  CB        56.7260   78.2320   14.9320 C.3    91  ASP91       0.1410
     36  CG        58.1980   78.3530   14.5810 C.2    91  ASP91       0.3668
     37  OD1       58.7180   77.5030   13.8140 O.co2  91  ASP91      -0.2456
     38  OD2       58.9270   79.2600   15.0290 O.co2  91  ASP91      -0.2456
     39  N         52.1930   77.3330   15.7770 N.3    93  ASP93      -0.1239
     40  CA        51.4560   76.6290   14.7390 C.3    93  ASP93       0.1674
     41  C         50.4240   75.7050   15.3510 C.2    93  ASP93       0.2266
     42  O         50.6880   75.0570   16.3650 O.2    93  ASP93      -0.2867
     43  CB        52.4030   75.7810   13.9020 C.3    93  ASP93       0.1410
     44  CG        53.2260   76.6000   12.9490 C.2    93  ASP93       0.3668
     45  OD1       52.6340   77.2510   12.0550 O.co2  93  ASP93      -0.2456
     46  OD2       54.4730   76.6370   13.0040 O.co2  93  ASP93      -0.2456
     47  N         50.1430   70.3650   12.0740 N.3    96  ARG96      -0.1245
     48  CA        51.3090   69.6170   11.6220 C.3    96  ARG96       0.1563
     49  C         50.9270   68.2000   11.2590 C.2    96  ARG96       0.2260
     50  O         50.2100   67.5440   11.9950 O.2    96  ARG96      -0.2867
     51  CB        52.4000   69.5800   12.6960 C.3    96  ARG96       0.0307
     52  CG        53.6730   68.9520   12.1900 C.3    96  ARG96       0.0489
     53  CD        54.7280   68.7340   13.2310 C.3    96  ARG96       0.2205
     54  NE        55.4050   69.9690   13.5760 N.pl3  96  ARG96      -0.0865
     55  CZ        56.2070   70.6420   12.7640 C.cat  96  ARG96       0.5346
     56  NH1       56.7600   71.7590   13.1900 N.pl3  96  ARG96       0.1354
     57  NH2       56.4780   70.2100   11.5420 N.pl3  96  ARG96       0.1354
     58  N         71.0520   71.5270   16.9200 N.3   155  MET155     -0.1245
     59  CA        69.6350   71.8700   16.7350 C.3   155  MET155      0.1570
     60  C         69.0810   72.9950   17.6340 C.2   155  MET155      0.2261
     61  O         68.4170   73.8990   17.1260 O.2   155  MET155     -0.2867
     62  CB        68.7600   70.6200   16.8890 C.3   155  MET155      0.0387
     63  CG        67.2440   70.8200   16.5910 C.3   155  MET155      0.0595
     64  SD        66.2120   71.4220   18.0090 S.3   155  MET155     -0.1393
     65  CE        66.3680   70.0640   19.1820 C.3   155  MET155      0.0692
     66  N         67.8690   76.7240   16.7180 N.3   159  GLN159     -0.1245
     67  CA        66.5260   77.2270   16.9540 C.3   159  GLN159      0.1566
     68  C         66.5970   78.6150   17.5750 C.2   159  GLN159      0.2260
     69  O         65.7700   79.4740   17.2770 O.2   159  GLN159     -0.2867
     70  CB        65.7300   76.2810   17.8540 C.3   159  GLN159      0.0367
     71  CG        65.2390   75.0030   17.1730 C.3   159  GLN159      0.0905
     72  CD        64.0380   75.2260   16.2570 C.2   159  GLN159      0.2608
     73  OE1       64.1190   75.9920   15.2800 O.2   159  GLN159     -0.2717
     74  NE2       62.9230   74.5480   16.5570 N.am  159  GLN159     -0.0878
     75  N         67.4970   81.0700   14.8140 N.3   162  ASP162     -0.1239
     76  CA        66.2580   81.2230   14.0610 C.3   162  ASP162      0.1674
     77  C         65.3370   82.2340   14.7610 C.2   162  ASP162      0.2266
     78  O         64.8320   83.1520   14.1290 O.2   162  ASP162     -0.2867
     79  CB        65.5730   79.8620   13.9040 C.3   162  ASP162      0.1410
     80  CG        64.2120   79.9520   13.2590 C.2   162  ASP162      0.3668
     81  OD1       64.1200   79.8000   12.0260 O.co2 162  ASP162     -0.2456
     82  OD2       63.1660   80.1590   13.9100 O.co2 162  ASP162     -0.2456
     83  N         70.1440   74.2630   12.9040 N.3   182  LYS182     -0.1231
     84  CA        68.8120   73.8520   13.3430 C.3   182  LYS182      0.1693
     85  C         68.3510   72.6010   12.6350 C.2   182  LYS182      0.2592
     86  O         67.6150   71.8250   13.2230 O.2   182  LYS182     -0.2718
     87  CB        67.7730   74.9750   13.2210 C.3   182  LYS182      0.0285
     88  CG        67.1680   75.1710   11.8700 C.3   182  LYS182      0.0035
     89  CD        66.0660   76.2120   11.9150 C.3   182  LYS182      0.0206
     90  CE        65.4260   76.4090   10.5430 C.3   182  LYS182      0.1093
     91  NZ        64.1460   77.1900   10.5740 N.3   182  LYS182     -0.1314
     92  N         68.8100   72.3920   11.4020 N.am  183  THR183     -0.1953
     93  CA        68.3550   71.2780   10.5700 C.3   183  THR183      0.1897
     94  C         69.4790   70.3680   10.1250 C.2   183  THR183      0.2313
     95  O         69.3300   69.1520   10.1430 O.2   183  THR183     -0.2863
     96  CB        67.6460   71.8250    9.3350 C.3   183  THR183      0.1794
     97  OG1       66.4360   72.4680    9.7410 O.3   183  THR183     -0.2208
     98  CG2       67.1840   70.7110    8.4010 C.3   183  THR183      0.0378
     99  N         66.5800   72.1400    4.5090 N.3   221  GLN221     -0.1245
    100  CA        65.9560   73.3260    5.0580 C.3   221  GLN221      0.1566
    101  C         65.6260   74.3910    4.0100 C.2   221  GLN221      0.2260
    102  O         64.6420   75.1180    4.1770 O.2   221  GLN221     -0.2867
    103  CB        66.8230   73.9240    6.1600 C.3   221  GLN221      0.0367
    104  CG        66.1390   75.0200    6.9650 C.3   221  GLN221      0.0905
    105  CD        64.7800   74.6220    7.5010 C.2   221  GLN221      0.2608
    106  OE1       64.6480   73.5980    8.1600 O.2   221  GLN221     -0.2717
    107  NE2       63.7720   75.4470    7.2390 N.am  221  GLN221     -0.0878
    108  N         62.5140   73.1540    2.5430 N.3   224  ASP224     -0.1239
    109  CA        61.4680   73.4290    3.5350 C.3   224  ASP224      0.1674
    110  C         61.0070   74.8940    3.5370 C.2   224  ASP224      0.2266
    111  O         59.8440   75.1750    3.7970 O.2   224  ASP224     -0.2867
    112  CB        61.9480   73.0720    4.9440 C.3   224  ASP224      0.1410
    113  CG        60.8740   73.2800    5.9860 C.2   224  ASP224      0.3668
    114  OD1       59.8680   72.5330    5.9630 O.co2 224  ASP224     -0.2456
    115  OD2       60.9390   74.1770    6.8570 O.co2 224  ASP224     -0.2456
    116  N         57.3400   76.2570    2.2250 N.3   228  ASP228     -0.1239
    117  CA        56.5150   77.1260    3.0640 C.3   228  ASP228      0.1674
    118  C         55.8590   78.2450    2.2390 C.2   228  ASP228      0.2266
    119  O         54.7410   78.6350    2.5370 O.2   228  ASP228     -0.2867
    120  CB        57.3090   77.7000    4.2440 C.3   228  ASP228      0.1410
    121  CG        56.4480   77.8780    5.4990 C.2   228  ASP228      0.3668
    122  OD1       55.8080   78.9480    5.6230 O.co2 228  ASP228     -0.2456
    123  OD2       56.3480   77.0110    6.4070 O.co2 228  ASP228     -0.2456
    124  N         50.9760   71.2560    7.0640 N.3   238  LYS238     -0.1245
    125  CA        51.2040   72.4460    7.8820 C.3   238  LYS238      0.1561
    126  C         50.8720   73.6930    7.0820 C.2   238  LYS238      0.2260
    127  O         50.7770   73.6490    5.8600 O.2   238  LYS238     -0.2867
    128  CB        52.6630   72.5220    8.3680 C.3   238  LYS238      0.0271
    129  CG        53.7090   72.2340    7.3120 C.3   238  LYS238      0.0035
    130  CD        55.0970   72.5460    7.8380 C.3   238  LYS238      0.0206
    131  CE        56.1750   72.2160    6.8180 C.3   238  LYS238      0.1093
    132  NZ        57.4780   71.8580    7.4700 N.3   238  LYS238     -0.1314
    133  N         55.9600   81.1240    7.7380 N.3   243  ASP243     -0.1239
    134  CA        57.2310   81.8440    7.7880 C.3   243  ASP243      0.1674
    135  C         57.0550   83.3290    7.5270 C.2   243  ASP243      0.2266
    136  O         57.5720   84.1660    8.2590 O.2   243  ASP243     -0.2867
    137  CB        58.1900   81.2870    6.7360 C.3   243  ASP243      0.1410
    138  CG        58.8640   80.0150    7.1740 C.2   243  ASP243      0.3668
    139  OD1       58.7030   79.6330    8.3690 O.co2 243  ASP243     -0.2456
    140  OD2       59.5780   79.3460    6.3770 O.co2 243  ASP243     -0.2456
    141  N         60.2380   85.3580    9.4900 N.3   248  LYS248     -0.1245
    142  CA        61.3760   84.4680    9.5680 C.3   248  LYS248      0.1561
    143  C         62.3510   84.7840    8.4450 C.2   248  LYS248      0.2260
    144  O         61.9410   85.0820    7.3210 O.2   248  LYS248     -0.2867
    145  CB        60.9200   83.0080    9.4580 C.3   248  LYS248      0.0271
    146  CG        60.0400   82.5340   10.6110 C.3   248  LYS248      0.0035
    147  CD        60.8690   82.1310   11.8380 C.3   248  LYS248      0.0206
    148  CE        59.9870   81.4590   12.9000 C.3   248  LYS248      0.1093
    149  NZ        60.7920   80.8660   14.0080 N.3   248  LYS248     -0.1314
@<TRIPOS>BOND
     1   116   117    1
     2   118   119    2
     3   118   117    1
     4   108   109    1
     5   117   120    1
     6   109   110    1
     7   109   112    1
     8   110   111    2
     9   101   102    2
    10   101   100    1
    11   120   121    1
    12    99   100    1
    13   112   113    1
    14   100   103    1
    15   121   122   ar
    16   121   123   ar
    17   127   126    2
    18   114   113   ar
    19   113   115   ar
    20   103   104    1
    21   140   138   ar
    22   137   138    1
    23   137   134    1
    24   131   132    1
    25   131   130    1
    26   104   105    1
    27   124   125    1
    28   126   125    1
    29   138   139   ar
    30   107   105   am
    31   129   130    1
    32   129   128    1
    33   144   143    2
    34   105   106    2
    35   135   134    1
    36   135   136    2
    37   133   134    1
    38   125   128    1
    39    98    96    1
    40   143   142    1
    41    96    97    1
    42    96    93    1
    43   145   142    1
    44   145   146    1
    45   141   142    1
    46    94    95    2
    47    94    93    1
    48    90    91    1
    49    90    89    1
    50    93    92    1
    51   146   147    1
    52    49    48    1
    53    49    50    2
    54    92    85   am
    55    57    55    1
    56    48    47    1
    57    48    51    1
    58   147   148    1
    59    88    89    1
    60    88    87    1
    61    81    80   ar
    62    45    44   ar
    63    52    51    1
    64    52    53    1
    65    85    86    2
    66    85    84    1
    67    55    56    1
    68    55    54    2
    69   148   149    1
    70    83    84    1
    71    44    46   ar
    72    44    43    1
    73    87    84    1
    74    53    54    1
    75    80    79    1
    76    80    82   ar
    77    13    12    1
    78    14    12    1
    79    37    36   ar
    80    43    40    1
    81    79    76    1
    82    76    77    1
    83    76    75    1
    84    78    77    2
    85    21    20   ar
    86    12    11    1
    87    36    35    1
    88    36    38   ar
    89    30    28   ar
    90    40    41    1
    91    40    39    1
    92    35    32    1
    93    34    33    2
    94    22    20   ar
    95    20    19    1
    96    73    72    2
    97    41    42    2
    98    11     8    1
    99    29    28   ar
   100    28    27    1
   101    32    33    1
   102    32    31    1
   103     6     5    1
   104    72    74   am
   105    72    71    1
   106     8     7    1
   107     8     9    1
   108    19    16    1
   109    63    62    1
   110    63    64    1
   111    66    67    1
   112    59    62    1
   113    59    58    1
   114    59    60    1
   115    67    68    1
   116    67    70    1
   117    27    24    1
   118     7     3   am
   119    61    60    2
   120    71    70    1
   121    18    17    2
   122    10     9    2
   123    69    68    2
   124    24    23    1
   125    24    25    1
   126     5     2    1
   127    17    23   am
   128    17    16    1
   129     3     4    2
   130     3     2    1
   131    16    15    1
   132    64    65    1
   133     2     1    1
   134    26    25    2
