@<TRIPOS>MOLECULE
tmp/1rqjB01.pdb
 178 162 0 0 0
SMALL
GASTEIGER

@<TRIPOS>ATOM
      1  N         20.9840   16.5890   -1.1180 N.3    47  ARG47      -0.1245
      2  CA        22.1520   16.4720   -0.2630 C.3    47  ARG47       0.1563
      3  C         22.4210   14.9990    0.0760 C.2    47  ARG47       0.2260
      4  O         23.5470   14.5610   -0.0770 O.2    47  ARG47      -0.2867
      5  CB        22.0520   17.3890    0.9480 C.3    47  ARG47       0.0307
      6  CG        22.2550   18.8550    0.5570 C.3    47  ARG47       0.0489
      7  CD        21.7630   19.8610    1.5760 C.3    47  ARG47       0.2205
      8  NE        21.6260   21.1890    0.9930 N.pl3  47  ARG47      -0.0865
      9  CZ        20.6230   21.5740    0.2130 C.cat  47  ARG47       0.5346
     10  NH1       20.5910   22.8160   -0.2580 N.pl3  47  ARG47       0.1354
     11  NH2       19.6420   20.7360   -0.1060 N.pl3  47  ARG47       0.1354
     12  N         20.0670   20.2150    6.9920 N.3    76  HIS76      -0.1241
     13  CA        19.3300   20.9140    5.9570 C.3    76  HIS76       0.1621
     14  C         17.9230   21.2590    6.4240 C.2    76  HIS76       0.2264
     15  O         17.5240   22.4250    6.4120 O.2    76  HIS76      -0.2867
     16  CB        19.2470   20.0720    4.6870 C.3    76  HIS76       0.0745
     17  CG        18.5720   20.7820    3.5670 C.ar   76  HIS76       0.0817
     18  ND1       17.5180   20.2400    2.8600 N.ar   76  HIS76      -0.2268
     19  CD2       18.7760   22.0170    3.0570 C.ar   76  HIS76       0.1154
     20  CE1       17.1270   21.1040    1.9410 C.ar   76  HIS76       0.1986
     21  NE2       17.8710   22.1900    2.0430 N.ar   76  HIS76      -0.2212
     22  N         17.7300   23.8910    9.0980 N.3    79  SER79      -0.1202
     23  CA        18.0970   25.1920    8.5810 C.3    79  SER79       0.2020
     24  C         16.8870   25.8510    7.9240 C.2    79  SER79       0.2618
     25  O         16.6860   27.0500    8.0470 O.2    79  SER79      -0.2717
     26  CB        19.2630   25.0830    7.5930 C.3    79  SER79       0.2103
     27  OG        18.8400   24.5970    6.3370 O.3    79  SER79      -0.2182
     28  N         16.0890   25.0640    7.2240 N.am   80  LEU80      -0.1979
     29  CA        14.8970   25.5840    6.5620 C.3    80  LEU80       0.1596
     30  C         13.8140   26.0180    7.5510 C.2    80  LEU80       0.2287
     31  O         13.1790   27.0570    7.3600 O.2    80  LEU80      -0.2864
     32  CB        14.3240   24.5280    5.6420 C.3    80  LEU80       0.0297
     33  CG        15.2240   23.9820    4.5480 C.3    80  LEU80       0.0022
     34  CD1       14.3920   23.0840    3.6420 C.3    80  LEU80       0.0001
     35  CD2       15.9120   25.1140    3.7710 C.3    80  LEU80       0.0001
     36  N         14.9490   29.2180    8.9460 N.3    83  ASP83      -0.1225
     37  CA        14.9710   30.1990    7.8610 C.3    83  ASP83       0.1805
     38  C         13.5810   30.8090    7.5720 C.2    83  ASP83       0.2597
     39  O         13.4710   31.9850    7.2560 O.2    83  ASP83      -0.2718
     40  CB        15.5150   29.5300    6.6050 C.3    83  ASP83       0.1424
     41  CG        15.6290   30.4700    5.4560 C.2    83  ASP83       0.3668
     42  OD1       14.7100   30.4620    4.5900 O.co2  83  ASP83      -0.2456
     43  OD2       16.6180   31.2330    5.3240 O.co2  83  ASP83      -0.2456
     44  N         12.5370   30.0070    7.7030 N.am   84  ASP84      -0.1974
     45  CA        11.1720   30.4460    7.4480 C.3    84  ASP84       0.1709
     46  C         10.5240   31.2870    8.5770 C.2    84  ASP84       0.2293
     47  O          9.4650   31.8740    8.3720 O.2    84  ASP84      -0.2864
     48  CB        10.2830   29.2240    7.2060 C.3    84  ASP84       0.1436
     49  CG        10.5660   28.5440    5.8830 C.2    84  ASP84       0.3671
     50  OD1       10.3630   27.3030    5.7910 O.co2  84  ASP84      -0.2456
     51  OD2       10.9810   29.1580    4.8850 O.co2  84  ASP84      -0.2456
     52  N         13.0440   34.8850    7.4040 N.3    89  ASP89      -0.1239
     53  CA        12.4890   35.1980    6.0730 C.3    89  ASP89       0.1674
     54  C         10.9670   35.2890    6.0670 C.2    89  ASP89       0.2266
     55  O         10.3650   35.6450    5.0540 O.2    89  ASP89      -0.2867
     56  CB        12.9360   34.1670    5.0160 C.3    89  ASP89       0.1410
     57  CG        14.4290   34.1380    4.8380 C.2    89  ASP89       0.3668
     58  OD1       14.9570   33.2600    4.0900 O.co2  89  ASP89      -0.2456
     59  OD2       15.1630   34.9630    5.4130 O.co2  89  ASP89      -0.2456
     60  N          8.3090   33.2030    5.9360 N.3    91  ASP91      -0.1239
     61  CA         7.6300   32.4870    4.8610 C.3    91  ASP91       0.1674
     62  C          6.5730   31.5490    5.4030 C.2    91  ASP91       0.2266
     63  O          6.7730   30.8830    6.4250 O.2    91  ASP91      -0.2867
     64  CB         8.6410   31.6850    4.0320 C.3    91  ASP91       0.1410
     65  CG         9.2120   32.4770    2.8950 C.2    91  ASP91       0.3668
     66  OD1        8.4280   32.8690    2.0040 O.co2  91  ASP91      -0.2456
     67  OD2       10.4260   32.7550    2.7860 O.co2  91  ASP91      -0.2456
     68  N          6.4260   26.1460    2.2080 N.3    94  ARG94      -0.1245
     69  CA         7.6090   25.4220    1.7760 C.3    94  ARG94       0.1563
     70  C          7.2100   24.0220    1.3820 C.2    94  ARG94       0.2260
     71  O          6.4090   23.3850    2.0710 O.2    94  ARG94      -0.2867
     72  CB         8.6620   25.3590    2.8780 C.3    94  ARG94       0.0307
     73  CG         9.9160   24.6240    2.4410 C.3    94  ARG94       0.0489
     74  CD        11.0210   24.6220    3.4870 C.3    94  ARG94       0.2205
     75  NE        11.5860   25.9490    3.7370 N.pl3  94  ARG94      -0.0865
     76  CZ        12.4210   26.5790    2.9110 C.cat  94  ARG94       0.5346
     77  NH1       12.9000   27.7710    3.2390 N.pl3  94  ARG94       0.1354
     78  NH2       12.7890   26.0270    1.7700 N.pl3  94  ARG94       0.1354
     79  N         27.0820   27.2650    7.3400 N.3   153  MET153     -0.1245
     80  CA        25.6760   27.5590    7.0770 C.3   153  MET153      0.1570
     81  C         25.1470   28.6960    7.9380 C.2   153  MET153      0.2261
     82  O         24.5560   29.6440    7.4360 O.2   153  MET153     -0.2867
     83  CB        24.8550   26.2980    7.2780 C.3   153  MET153      0.0387
     84  CG        23.4100   26.3920    6.8370 C.3   153  MET153      0.0595
     85  SD        22.4010   27.1530    8.0900 S.3   153  MET153     -0.1393
     86  CE        22.4070   25.8620    9.4100 C.3   153  MET153      0.0692
     87  N         23.8580   32.3800    7.0840 N.3   157  GLN157     -0.1245
     88  CA        22.5350   32.8900    7.4040 C.3   157  GLN157      0.1566
     89  C         22.6320   34.2810    8.0020 C.2   157  GLN157      0.2260
     90  O         21.8050   35.1460    7.6910 O.2   157  GLN157     -0.2867
     91  CB        21.7870   31.9470    8.3480 C.3   157  GLN157      0.0367
     92  CG        21.3490   30.6520    7.6820 C.3   157  GLN157      0.0905
     93  CD        20.3330   30.8990    6.5970 C.2   157  GLN157      0.2608
     94  OE1       20.7010   31.2970    5.4960 O.2   157  GLN157     -0.2717
     95  NE2       19.0470   30.7120    6.9140 N.am  157  GLN157     -0.0878
     96  N         23.4980   36.7940    5.2580 N.3   160  ASP160     -0.1239
     97  CA        22.2910   36.9800    4.4660 C.3   160  ASP160      0.1674
     98  C         21.3560   37.9890    5.1380 C.2   160  ASP160      0.2266
     99  O         20.8560   38.9270    4.4990 O.2   160  ASP160     -0.2867
    100  CB        21.6150   35.6250    4.2520 C.3   160  ASP160      0.1410
    101  CG        20.2050   35.7390    3.7790 C.2   160  ASP160      0.3668
    102  OD1       19.9380   35.4490    2.5880 O.co2 160  ASP160     -0.2456
    103  OD2       19.2810   36.0720    4.5400 O.co2 160  ASP160     -0.2456
    104  N         26.1170   30.1220    3.2930 N.3   180  LYS180     -0.1231
    105  CA        24.7780   29.6720    3.6860 C.3   180  LYS180      0.1693
    106  C         24.3220   28.3890    3.0060 C.2   180  LYS180      0.2592
    107  O         23.4660   27.6880    3.5410 O.2   180  LYS180     -0.2718
    108  CB        23.7250   30.7640    3.5060 C.3   180  LYS180      0.0285
    109  CG        23.2410   31.0270    2.0800 C.3   180  LYS180      0.0035
    110  CD        22.0810   32.0490    2.1310 C.3   180  LYS180      0.0206
    111  CE        21.6340   32.5470    0.7680 C.3   180  LYS180      0.1093
    112  NZ        20.2350   33.1220    0.7940 N.3   180  LYS180     -0.1314
    113  N         24.8980   28.0980    1.8410 N.am  181  THR181     -0.1953
    114  CA        24.4540   27.0090    0.9830 C.3   181  THR181      0.1897
    115  C         25.6010   26.1290    0.5040 C.2   181  THR181      0.2313
    116  O         25.4820   24.9070    0.4750 O.2   181  THR181     -0.2863
    117  CB        23.6860   27.5980   -0.2030 C.3   181  THR181      0.1794
    118  OG1       22.4290   28.0700    0.2610 O.3   181  THR181     -0.2208
    119  CG2       23.3220   26.5390   -1.2460 C.3   181  THR181      0.0378
    120  N         22.7240   27.8600   -4.9690 N.3   219  GLN219     -0.1245
    121  CA        22.0930   29.0400   -4.4270 C.3   219  GLN219      0.1566
    122  C         21.8210   30.0890   -5.5010 C.2   219  GLN219      0.2260
    123  O         20.8420   30.8000   -5.3920 O.2   219  GLN219     -0.2867
    124  CB        22.9180   29.6610   -3.3040 C.3   219  GLN219      0.0367
    125  CG        22.1730   30.7810   -2.5660 C.3   219  GLN219      0.0905
    126  CD        20.8560   30.3320   -1.9700 C.2   219  GLN219      0.2608
    127  OE1       20.7830   29.2710   -1.3530 O.2   219  GLN219     -0.2717
    128  NE2       19.8180   31.1400   -2.1380 N.am  219  GLN219     -0.0878
    129  N         18.6730   28.8300   -6.8320 N.3   222  ASP222     -0.1225
    130  CA        17.6240   29.1330   -5.8720 C.3   222  ASP222      0.1805
    131  C         17.1860   30.6100   -5.9850 C.2   222  ASP222      0.2597
    132  O         16.0010   30.9050   -5.9320 O.2   222  ASP222     -0.2718
    133  CB        18.0840   28.8030   -4.4520 C.3   222  ASP222      0.1424
    134  CG        16.9880   28.9760   -3.4510 C.2   222  ASP222      0.3668
    135  OD1       16.0370   28.1620   -3.4450 O.co2 222  ASP222     -0.2456
    136  OD2       16.9590   29.9290   -2.6510 O.co2 222  ASP222     -0.2456
    137  N         18.1350   31.5260   -6.1460 N.am  223  ASP223     -0.1974
    138  CA        17.7990   32.9590   -6.3210 C.3   223  ASP223      0.1709
    139  C         17.0210   33.1920   -7.6100 C.2   223  ASP223      0.2293
    140  O         16.0200   33.9170   -7.6290 O.2   223  ASP223     -0.2864
    141  CB        19.0440   33.8190   -6.3840 C.3   223  ASP223      0.1436
    142  CG        19.7660   33.9280   -5.0700 C.2   223  ASP223      0.3671
    143  OD1       19.2510   33.4470   -4.0180 O.co2 223  ASP223     -0.2456
    144  OD2       20.8860   34.4800   -5.0160 O.co2 223  ASP223     -0.2456
    145  N         13.4870   31.9280   -7.4010 N.3   226  ASP226     -0.1239
    146  CA        12.6800   32.8160   -6.5970 C.3   226  ASP226      0.1674
    147  C         12.0180   33.8890   -7.4680 C.2   226  ASP226      0.2266
    148  O         10.8720   34.2640   -7.2250 O.2   226  ASP226     -0.2867
    149  CB        13.5380   33.4760   -5.5260 C.3   226  ASP226      0.1410
    150  CG        12.7820   33.7320   -4.2610 C.2   226  ASP226      0.3668
    151  OD1       12.3390   34.8850   -4.0810 O.co2 226  ASP226     -0.2456
    152  OD2       12.5860   32.8420   -3.3950 O.co2 226  ASP226     -0.2456
    153  N          7.3100   27.0360   -2.7210 N.3   236  LYS236     -0.1245
    154  CA         7.4990   28.2070   -1.8810 C.3   236  LYS236      0.1561
    155  C          7.2480   29.4660   -2.7290 C.2   236  LYS236      0.2260
    156  O          7.2800   29.4140   -3.9610 O.2   236  LYS236     -0.2867
    157  CB         8.9130   28.2170   -1.2620 C.3   236  LYS236      0.0271
    158  CG        10.0650   28.1000   -2.2790 C.3   236  LYS236      0.0035
    159  CD        11.4430   27.8920   -1.5870 C.3   236  LYS236      0.0206
    160  CE        12.5750   28.1250   -2.5370 C.3   236  LYS236      0.1093
    161  NZ        13.8760   27.5490   -2.0870 N.3   236  LYS236     -0.1314
    162  N         12.2100   37.0000   -2.1050 N.3   241  ASP241     -0.1239
    163  CA        13.4660   37.7390   -1.9320 C.3   241  ASP241      0.1674
    164  C         13.2860   39.2210   -2.2410 C.2   241  ASP241      0.2266
    165  O         13.8230   40.0740   -1.5490 O.2   241  ASP241     -0.2867
    166  CB        14.5640   37.1910   -2.8480 C.3   241  ASP241      0.1410
    167  CG        15.0250   35.7910   -2.4630 C.2   241  ASP241      0.3668
    168  OD1       14.8150   35.3530   -1.2990 O.co2 241  ASP241     -0.2456
    169  OD2       15.6020   35.0540   -3.2920 O.co2 241  ASP241     -0.2456
    170  N         16.3250   40.9590   -0.2770 N.3   246  LYS246     -0.1245
    171  CA        17.5010   40.1150   -0.1360 C.3   246  LYS246      0.1561
    172  C         18.5150   40.4970   -1.1950 C.2   246  LYS246      0.2260
    173  O         18.1450   40.8450   -2.3370 O.2   246  LYS246     -0.2867
    174  CB        17.1530   38.6270   -0.2950 C.3   246  LYS246      0.0271
    175  CG        16.2300   38.0690    0.7620 C.3   246  LYS246      0.0035
    176  CD        16.9160   37.8620    2.0960 C.3   246  LYS246      0.0206
    177  CE        15.9010   37.4330    3.1580 C.3   246  LYS246      0.1093
    178  NZ        16.5360   37.0700    4.4820 N.3   246  LYS246     -0.1314
@<TRIPOS>BOND
     1   140   139    2
     2   139   138    1
     3   147   148    2
     4   147   146    1
     5   145   146    1
     6   129   130    1
     7   146   149    1
     8   141   138    1
     9   141   142    1
    10   138   137    1
    11   137   131   am
    12   131   132    2
    13   131   130    1
    14   130   133    1
    15   149   150    1
    16   122   123    2
    17   122   121    1
    18   142   144   ar
    19   142   143   ar
    20   120   121    1
    21   133   134    1
    22   121   124    1
    23   150   151   ar
    24   150   152   ar
    25   156   155    2
    26   134   135   ar
    27   134   136   ar
    28   124   125    1
    29   169   167   ar
    30   166   167    1
    31   166   163    1
    32   155   154    1
    33   153   154    1
    34   125   126    1
    35   160   161    1
    36   160   159    1
    37   167   168   ar
    38   173   172    2
    39   158   159    1
    40   158   157    1
    41   164   163    1
    42   164   165    2
    43   128   126   am
    44   162   163    1
    45   126   127    2
    46   154   157    1
    47   119   117    1
    48   172   171    1
    49     1     2    1
    50   174   171    1
    51   174   175    1
    52   170   171    1
    53     2     3    1
    54     2     5    1
    55    10     9    1
    56   117   118    1
    57   117   114    1
    58    11     9    1
    59     4     3    2
    60     9     8    2
    61   116   115    2
    62   115   114    1
    63     6     5    1
    64     6     7    1
    65   175   176    1
    66   111   112    1
    67   111   110    1
    68   114   113    1
    69     8     7    1
    70    70    69    1
    71    70    71    2
    72    78    76    1
    73    69    68    1
    74    69    72    1
    75   113   106   am
    76    20    21   ar
    77    20    18   ar
    78    66    65   ar
    79    21    19   ar
    80   109   110    1
    81   109   108    1
    82   176   177    1
    83    73    72    1
    84    73    74    1
    85   102   101   ar
    86    67    65   ar
    87    18    17   ar
    88    65    64    1
    89    76    77    1
    90    76    75    2
    91   106   107    2
    92   106   105    1
    93    19    17   ar
    94   177   178    1
    95   104   105    1
    96    74    75    1
    97   108   105    1
    98    17    16    1
    99    34    33    1
   100    35    33    1
   101   101   100    1
   102   101   103   ar
   103    64    61    1
   104    58    57   ar
   105   100    97    1
   106    97    98    1
   107    97    96    1
   108    99    98    2
   109    33    32    1
   110    42    41   ar
   111    16    13    1
   112    57    56    1
   113    57    59   ar
   114    61    62    1
   115    61    60    1
   116    51    49   ar
   117    56    53    1
   118    55    54    2
   119    43    41   ar
   120    62    63    2
   121    41    40    1
   122    94    93    2
   123    32    29    1
   124    50    49   ar
   125    49    48    1
   126    13    14    1
   127    13    12    1
   128    54    53    1
   129    53    52    1
   130    27    26    1
   131    15    14    2
   132    29    28    1
   133    29    30    1
   134    93    95   am
   135    93    92    1
   136    40    37    1
   137    84    83    1
   138    84    85    1
   139    80    83    1
   140    80    79    1
   141    80    81    1
   142    87    88    1
   143    48    45    1
   144    28    24   am
   145    39    38    2
   146    31    30    2
   147    88    89    1
   148    88    91    1
   149    82    81    2
   150    45    44    1
   151    45    46    1
   152    38    44   am
   153    38    37    1
   154    26    23    1
   155    92    91    1
   156    90    89    2
   157    37    36    1
   158    24    25    2
   159    24    23    1
   160    85    86    1
   161    47    46    2
   162    23    22    1
