@<TRIPOS>MOLECULE
tmp/1rqkA00.pdb
 105 98 0 0 0
SMALL
GASTEIGER

@<TRIPOS>ATOM
      1  N        -11.5770   88.5480   42.2680 N.3    16  LEU16      -0.1245
      2  CA       -12.1840   88.1360   41.0030 C.3    16  LEU16       0.1561
      3  C        -12.7590   86.7430   41.1090 C.2    16  LEU16       0.2260
      4  O        -13.7570   86.4570   40.5140 O.2    16  LEU16      -0.2867
      5  CB       -11.1660   88.1530   39.8720 C.3    16  LEU16       0.0270
      6  CG       -10.6000   89.5370   39.5760 C.3    16  LEU16       0.0019
      7  CD1       -9.4020   89.4830   38.6500 C.3    16  LEU16       0.0001
      8  CD2      -11.6950   90.4240   38.9960 C.3    16  LEU16       0.0001
      9  N          1.2130   84.7080   34.9570 N.3    98  VAL98      -0.1245
     10  CA        -0.1650   85.1270   34.7260 C.3    98  VAL98       0.1561
     11  C         -0.9380   85.1980   36.0380 C.2    98  VAL98       0.2260
     12  O         -1.6640   86.1570   36.2790 O.2    98  VAL98      -0.2867
     13  CB        -0.8950   84.1690   33.7490 C.3    98  VAL98       0.0252
     14  CG1       -2.3970   84.3990   33.7610 C.3    98  VAL98       0.0019
     15  CG2       -0.3800   84.3820   32.3730 C.3    98  VAL98       0.0019
     16  N          0.0560   88.3900   37.8360 N.3   101  ALA101     -0.1231
     17  CA        -0.6090   89.5350   37.2610 C.3   101  ALA101      0.1694
     18  C         -2.0530   89.6780   37.7500 C.2   101  ALA101      0.2591
     19  O         -2.4910   90.7830   38.1030 O.2   101  ALA101     -0.2718
     20  CB        -0.5830   89.4250   35.7350 C.3   101  ALA101      0.0304
     21  N         -2.7990   88.5800   37.7230 N.am  102  LEU102     -0.1980
     22  CA        -4.2020   88.6110   38.1200 C.3   102  LEU102      0.1596
     23  C         -4.3570   88.9450   39.6090 C.2   102  LEU102      0.2287
     24  O         -5.3350   89.6100   40.0040 O.2   102  LEU102     -0.2864
     25  CB        -4.8940   87.2970   37.7750 C.3   102  LEU102      0.0297
     26  CG        -5.0590   87.1370   36.2570 C.3   102  LEU102      0.0022
     27  CD1       -5.3470   85.7010   35.9370 C.3   102  LEU102      0.0001
     28  CD2       -6.1430   88.0170   35.6960 C.3   102  LEU102      0.0001
     29  N         -4.2280   92.5310   40.0520 N.3   105  VAL105     -0.1245
     30  CA        -5.5260   93.0940   39.6690 C.3   105  VAL105      0.1561
     31  C         -6.4940   93.0540   40.8680 C.2   105  VAL105      0.2260
     32  O         -7.2210   94.0340   41.1360 O.2   105  VAL105     -0.2867
     33  CB        -6.1530   92.3840   38.4100 C.3   105  VAL105      0.0252
     34  CG1       -7.5960   92.7690   38.2040 C.3   105  VAL105      0.0019
     35  CG2       -5.4000   92.7770   37.1800 C.3   105  VAL105      0.0019
     36  N         -8.1050   96.3660   42.7930 N.3   109  ARG109     -0.1245
     37  CA        -9.5020   96.5530   43.0960 C.3   109  ARG109      0.1563
     38  C         -9.7790   96.9010   44.5560 C.2   109  ARG109      0.2260
     39  O        -10.6560   97.7520   44.8530 O.2   109  ARG109     -0.2867
     40  CB       -10.2780   95.3210   42.7180 C.3   109  ARG109      0.0307
     41  CG       -10.5240   95.3070   41.2910 C.3   109  ARG109      0.0489
     42  CD       -10.6180   93.9510   40.7140 C.3   109  ARG109      0.2205
     43  NE       -11.7980   93.2330   41.1940 N.pl3 109  ARG109     -0.0865
     44  CZ       -13.0170   93.3980   40.7190 C.cat 109  ARG109      0.5346
     45  NH1      -13.2440   94.2550   39.7320 N.pl3 109  ARG109      0.1354
     46  NH2      -14.0130   92.6840   41.2260 N.pl3 109  ARG109      0.1354
     47  N         -5.2670  100.1540   37.0140 N.3   115  TYR115     -0.1241
     48  CA        -4.6570   98.8790   36.6460 C.3   115  TYR115      0.1605
     49  C         -3.3370   98.9530   35.8650 C.2   115  TYR115      0.2264
     50  O         -2.9290   97.9460   35.2820 O.2   115  TYR115     -0.2867
     51  CB        -5.6650   98.0680   35.8490 C.3   115  TYR115      0.0534
     52  CG        -6.9490   97.8250   36.5820 C.ar  115  TYR115     -0.0201
     53  CD1       -6.9980   96.9940   37.6720 C.ar  115  TYR115     -0.0009
     54  CD2       -8.1040   98.4140   36.1830 C.ar  115  TYR115     -0.0009
     55  CE1       -8.1740   96.7390   38.3280 C.ar  115  TYR115      0.0417
     56  CE2       -9.2990   98.1860   36.8410 C.ar  115  TYR115      0.0417
     57  CZ        -9.3310   97.3380   37.9080 C.ar  115  TYR115      0.1957
     58  OH       -10.5370   97.0950   38.5440 O.3   115  TYR115     -0.2866
     59  N         -0.1940   95.9310   36.5500 N.3   118  PRO118     -0.2102
     60  CA        -0.3290   94.6240   35.9280 C.3   118  PRO118      0.1504
     61  C         -0.3880   94.6790   34.4190 C.2   118  PRO118      0.2575
     62  O          0.0530   93.7640   33.7390 O.2   118  PRO118     -0.2718
     63  CB        -1.6760   94.0920   36.4790 C.3   118  PRO118      0.0282
     64  CG        -2.4180   95.2610   36.9670 C.3   118  PRO118      0.0208
     65  CD        -1.3470   96.2230   37.4150 C.3   118  PRO118      0.0893
     66  N         -0.9500   95.7500   33.9010 N.am  119  PHE119     -0.1977
     67  CA        -0.9290   96.0010   32.4890 C.3   119  PHE119      0.1639
     68  C          0.5260   96.0850   31.9780 C.2   119  PHE119      0.2290
     69  O          0.8780   95.4120   31.0000 O.2   119  PHE119     -0.2864
     70  CB        -1.7110   97.2750   32.2130 C.3   119  PHE119      0.0560
     71  CG        -1.6520   97.7000   30.7990 C.ar  119  PHE119     -0.0200
     72  CD1       -2.4190   97.0390   29.8370 C.ar  119  PHE119     -0.0042
     73  CD2       -0.7750   98.7470   30.4010 C.ar  119  PHE119     -0.0042
     74  CE1       -2.3370   97.4240   28.4890 C.ar  119  PHE119     -0.0003
     75  CE2       -0.6990   99.1640   29.0660 C.ar  119  PHE119     -0.0003
     76  CZ        -1.4740   98.5020   28.1050 C.ar  119  PHE119     -0.0000
     77  N          2.2890   92.8140   31.9690 N.3   122  ALA122     -0.1245
     78  CA         1.9280   91.9200   30.8930 C.3   122  ALA122      0.1562
     79  C          2.8590   92.0930   29.7110 C.2   122  ALA122      0.2260
     80  O          3.0160   91.1850   28.9260 O.2   122  ALA122     -0.2867
     81  CB         0.5190   92.1490   30.4780 C.3   122  ALA122      0.0290
     82  N          5.6810   89.6550   30.4770 N.3   125  ILE125     -0.1231
     83  CA         5.1120   88.3350   30.2330 C.3   125  ILE125      0.1692
     84  C          5.0680   88.0170   28.7330 C.2   125  ILE125      0.2591
     85  O          5.3130   86.8940   28.3260 O.2   125  ILE125     -0.2718
     86  CB         3.7090   88.2150   30.8240 C.3   125  ILE125      0.0266
     87  CG1        3.7740   88.1600   32.3470 C.3   125  ILE125      0.0019
     88  CG2        3.0590   86.9390   30.3260 C.3   125  ILE125      0.0020
     89  CD1        2.3920   88.0050   32.9970 C.3   125  ILE125      0.0001
     90  N          4.7610   89.0120   27.9220 N.am  126  LEU126     -0.1980
     91  CA         4.6250   88.8130   26.5120 C.3   126  LEU126      0.1596
     92  C          5.9860   88.6130   25.8530 C.2   126  LEU126      0.2287
     93  O          6.0840   87.8710   24.8790 O.2   126  LEU126     -0.2864
     94  CB         3.9360   90.0390   25.9220 C.3   126  LEU126      0.0297
     95  CG         3.2340   90.0710   24.5640 C.3   126  LEU126      0.0022
     96  CD1        1.7030   89.9970   24.7600 C.3   126  LEU126      0.0001
     97  CD2        3.7030   91.3540   23.7600 C.3   126  LEU126      0.0001
     98  N          6.9800   85.0520   26.5510 N.3   129  LEU129     -0.1245
     99  CA         6.2020   84.1150   25.7250 C.3   129  LEU129      0.1561
    100  C          6.5990   84.1360   24.2310 C.2   129  LEU129      0.2260
    101  O          6.5200   83.1120   23.5300 O.2   129  LEU129     -0.2867
    102  CB         4.6930   84.3510   25.8860 C.3   129  LEU129      0.0270
    103  CG         4.0360   83.8900   27.2010 C.3   129  LEU129      0.0019
    104  CD1        2.5310   84.1360   27.1140 C.3   129  LEU129      0.0001
    105  CD2        4.2900   82.4100   27.4980 C.3   129  LEU129      0.0001
@<TRIPOS>BOND
     1   101   100    2
     2    97    95    1
     3   100    99    1
     4    95    96    1
     5    95    94    1
     6    93    92    2
     7    99   102    1
     8    99    98    1
     9    92    91    1
    10   102   103    1
    11    94    91    1
    12    91    90    1
    13   104   103    1
    14   103   105    1
    15    90    84   am
    16    76    74   ar
    17    76    75   ar
    18    85    84    2
    19    74    72   ar
    20    84    83    1
    21    80    79    2
    22    75    73   ar
    23    79    78    1
    24    72    71   ar
    25    83    82    1
    26    83    86    1
    27    88    86    1
    28    73    71   ar
    29    81    78    1
    30    71    70    1
    31    86    87    1
    32    78    77    1
    33    69    68    2
    34    68    67    1
    35    70    67    1
    36    87    89    1
    37    15    13    1
    38    67    66    1
    39    62    61    2
    40    13    14    1
    41    13    10    1
    42    66    61   am
    43    61    60    1
    44    10     9    1
    45    10    11    1
    46    50    49    2
    47    28    26    1
    48    20    17    1
    49    51    52    1
    50    51    48    1
    51    49    48    1
    52    60    63    1
    53    60    59    1
    54    27    26    1
    55    11    12    2
    56    54    52   ar
    57    54    56   ar
    58    26    25    1
    59    63    64    1
    60    59    65    1
    61    52    53   ar
    62    48    47    1
    63    56    57   ar
    64    64    65    1
    65    35    33    1
    66    17    18    1
    67    17    16    1
    68    53    55   ar
    69    21    18   am
    70    21    22    1
    71    18    19    2
    72    25    22    1
    73    57    55   ar
    74    57    58    1
    75    22    23    1
    76    34    33    1
    77    33    30    1
    78     7     6    1
    79     8     6    1
    80     6     5    1
    81    23    24    2
    82    30    29    1
    83    30    31    1
    84    45    44    1
    85     5     2    1
    86     4     3    2
    87    42    43    1
    88    42    41    1
    89    44    43    2
    90    44    46    1
    91    31    32    2
    92     2     3    1
    93     2     1    1
    94    41    40    1
    95    40    37    1
    96    36    37    1
    97    37    38    1
    98    38    39    2
