@<TRIPOS>MOLECULE
tmp/1rqpA00.pdb
 110 107 0 0 0
SMALL
GASTEIGER

@<TRIPOS>ATOM
      1  N         21.6990   26.4080   66.4270 N.3     9  ASP9       -0.1225
      2  CA        22.1510   26.8200   65.0970 C.3     9  ASP9        0.1805
      3  C         22.4480   28.3380   65.0190 C.2     9  ASP9        0.2597
      4  O         22.4520   28.9380   63.9570 O.2     9  ASP9       -0.2718
      5  CB        21.1400   26.3930   64.0260 C.3     9  ASP9        0.1424
      6  CG        19.7930   27.1270   64.1080 C.2     9  ASP9        0.3668
      7  OD1       19.4740   27.7900   65.1540 O.co2   9  ASP9       -0.2456
      8  OD2       18.9650   27.0700   63.1460 O.co2   9  ASP9       -0.2456
      9  N         22.7520   28.9440   66.1510 N.am   10  LEU10      -0.1979
     10  CA        22.9350   30.4030   66.2080 C.3    10  LEU10       0.1596
     11  C         24.2990   30.8840   65.7510 C.2    10  LEU10       0.2287
     12  O         24.5080   32.0790   65.5270 O.2    10  LEU10      -0.2864
     13  CB        22.7080   30.8910   67.6400 C.3    10  LEU10       0.0297
     14  CG        21.3270   30.7010   68.2120 C.3    10  LEU10       0.0022
     15  CD1       21.3290   31.1800   69.6890 C.3    10  LEU10       0.0001
     16  CD2       20.3140   31.4580   67.4050 C.3    10  LEU10       0.0001
     17  N         28.3780   36.2460   66.1690 N.3    14  ASP14      -0.1239
     18  CA        27.8130   37.4380   66.7660 C.3    14  ASP14       0.1674
     19  C         27.4090   37.1030   68.2030 C.2    14  ASP14       0.2266
     20  O         27.8460   36.0830   68.7730 O.2    14  ASP14      -0.2867
     21  CB        26.6930   38.0310   65.9260 C.3    14  ASP14       0.1410
     22  CG        25.3880   37.2930   66.0540 C.2    14  ASP14       0.3668
     23  OD1       25.3730   36.1450   66.6370 O.co2  14  ASP14      -0.2456
     24  OD2       24.3410   37.8310   65.5810 O.co2  14  ASP14      -0.2456
     25  N         24.5390   36.3570   69.5640 N.3    16  SER16      -0.1217
     26  CA        23.2680   35.6210   69.7340 C.3    16  SER16       0.1889
     27  C         23.2960   34.6580   70.8720 C.2    16  SER16       0.2288
     28  O         22.4200   34.6790   71.7260 O.2    16  SER16      -0.2866
     29  CB        22.8520   34.9420   68.4290 C.3    16  SER16       0.2089
     30  OG        22.5830   35.9350   67.4610 O.3    16  SER16      -0.2183
     31  N         23.3640   36.4830   74.3060 N.3    19  GLN19      -0.1245
     32  CA        22.0960   36.9990   74.7700 C.3    19  GLN19       0.1566
     33  C         21.3100   35.9110   75.5230 C.2    19  GLN19       0.2260
     34  O         20.6930   36.2010   76.5490 O.2    19  GLN19      -0.2867
     35  CB        21.2360   37.5300   73.6260 C.3    19  GLN19       0.0367
     36  CG        21.9100   38.6490   72.8630 C.3    19  GLN19       0.0905
     37  CD        21.0550   39.1980   71.7690 C.2    19  GLN19       0.2608
     38  OE1       19.9270   38.7250   71.5450 O.2    19  GLN19      -0.2717
     39  NE2       21.5620   40.2270   71.1060 N.am   19  GLN19      -0.0878
     40  N         21.9940   25.2540   59.6410 N.3    42  PRO42      -0.2102
     41  CA        20.6530   25.7010   60.0200 C.3    42  PRO42       0.1504
     42  C         19.5390   24.8680   59.3750 C.2    42  PRO42       0.2575
     43  O         19.5560   24.5030   58.1680 O.2    42  PRO42      -0.2718
     44  CB        20.6260   27.1570   59.5740 C.3    42  PRO42       0.0282
     45  CG        22.0780   27.5650   59.5480 C.3    42  PRO42       0.0208
     46  CD        22.8290   26.3450   59.1010 C.3    42  PRO42       0.0893
     47  N         18.5670   24.5580   60.2070 N.am   43  TRP43      -0.1977
     48  CA        17.2970   23.9470   59.8090 C.3    43  TRP43       0.1640
     49  C         17.4370   22.4430   59.5270 C.2    43  TRP43       0.2290
     50  O         16.4760   21.7720   59.1910 O.2    43  TRP43      -0.2864
     51  CB        16.6490   24.7330   58.6550 C.3    43  TRP43       0.0576
     52  CG        16.8470   26.2580   58.8230 C.ar   43  TRP43       0.0006
     53  CD1       16.5970   27.0050   59.9320 C.ar   43  TRP43       0.0946
     54  CD2       17.3140   27.1610   57.8440 C.ar   43  TRP43       0.0152
     55  NE1       16.9200   28.3250   59.7170 N.ar   43  TRP43      -0.2442
     56  CE2       17.3060   28.4640   58.4240 C.ar   43  TRP43       0.0810
     57  CE3       17.7500   27.0200   56.5220 C.ar   43  TRP43       0.0012
     58  CZ2       17.7840   29.5890   57.7550 C.ar   43  TRP43       0.0191
     59  CZ3       18.2090   28.1330   55.8520 C.ar   43  TRP43       0.0001
     60  CH2       18.2010   29.4170   56.4640 C.ar   43  TRP43       0.0015
     61  N         15.2670   26.4470   64.8720 N.3    70  TYR70      -0.1228
     62  CA        13.8880   26.8980   64.9750 C.3    70  TYR70       0.1721
     63  C         13.3450   27.6190   63.7160 C.2    70  TYR70       0.2437
     64  O         12.9020   28.7460   63.7900 O.2    70  TYR70      -0.2733
     65  CB        13.7190   27.7690   66.2590 C.3    70  TYR70       0.0547
     66  CG        12.5150   27.4160   67.1360 C.ar   70  TYR70      -0.0200
     67  CD1       12.6800   27.0930   68.4900 C.ar   70  TYR70      -0.0009
     68  CD2       11.2260   27.4170   66.6160 C.ar   70  TYR70      -0.0009
     69  CE1       11.6030   26.7810   69.2910 C.ar   70  TYR70       0.0417
     70  CE2       10.1170   27.0740   67.4300 C.ar   70  TYR70       0.0417
     71  CZ        10.3420   26.7800   68.7750 C.ar   70  TYR70       0.1957
     72  OH         9.3620   26.4230   69.6210 O.3    70  TYR70      -0.2866
     73  N         13.3300   26.9420   62.5590 N.am   71  PRO71      -0.2729
     74  CA        12.8310   27.5700   61.3240 C.3    71  PRO71       0.1401
     75  C         11.3840   28.0460   61.4080 C.2    71  PRO71       0.2269
     76  O         10.9640   28.9430   60.6440 O.2    71  PRO71      -0.2865
     77  CB        13.0240   26.4750   60.2660 C.3    71  PRO71       0.0296
     78  CG        12.9800   25.2310   61.0480 C.3    71  PRO71       0.0237
     79  CD        13.7850   25.5500   62.3270 C.3    71  PRO71       0.0939
     80  N         10.2160   29.7080   63.9050 N.3    73  THR73      -0.1218
     81  CA        10.1860   30.7890   64.8890 C.3    73  THR73       0.1862
     82  C          9.1210   31.8440   64.5040 C.2    73  THR73       0.2287
     83  O          8.9290   32.1540   63.3290 O.2    73  THR73      -0.2866
     84  CB        11.6140   31.4270   65.0740 C.3    73  THR73       0.1770
     85  OG1       11.5400   32.5280   66.0300 O.3    73  THR73      -0.2211
     86  CG2       12.1320   32.0240   63.7230 C.3    73  THR73       0.0375
     87  N         11.4510   36.5200   65.5810 N.3   148  THR148     -0.1203
     88  CA        12.5190   35.8150   64.8970 C.3   148  THR148      0.1994
     89  C         13.5370   35.1240   65.8170 C.2   148  THR148      0.2617
     90  O         14.5220   34.6320   65.3410 O.2   148  THR148     -0.2717
     91  CB        13.2590   36.7160   63.9070 C.3   148  THR148      0.1784
     92  OG1       13.8380   37.8510   64.5820 O.3   148  THR148     -0.2211
     93  CG2       12.3450   37.2950   62.8450 C.3   148  THR148      0.0376
     94  N         13.3100   35.0660   67.1240 N.am  149  PHE149     -0.1975
     95  CA        14.2870   34.4620   68.0080 C.3   149  PHE149      0.1639
     96  C         13.6780   33.4650   68.9960 C.2   149  PHE149      0.2290
     97  O         13.9430   33.5510   70.2080 O.2   149  PHE149     -0.2864
     98  CB        15.0320   35.5670   68.7380 C.3   149  PHE149      0.0560
     99  CG        16.4510   35.2250   69.1160 C.ar  149  PHE149     -0.0200
    100  CD1       16.8860   33.9050   69.2470 C.ar  149  PHE149     -0.0042
    101  CD2       17.3690   36.2420   69.3100 C.ar  149  PHE149     -0.0042
    102  CE1       18.1980   33.6180   69.6300 C.ar  149  PHE149     -0.0003
    103  CE2       18.6980   35.9550   69.6940 C.ar  149  PHE149     -0.0003
    104  CZ        19.1020   34.6590   69.8280 C.ar  149  PHE149     -0.0000
    105  N         14.4990   30.4740   69.3900 N.3   151  SER151     -0.1217
    106  CA        15.5860   29.7320   70.0580 C.3   151  SER151      0.1889
    107  C         15.9260   30.3370   71.4280 C.2   151  SER151      0.2288
    108  O         16.3170   29.6360   72.3480 O.2   151  SER151     -0.2866
    109  CB        16.8370   29.6040   69.1860 C.3   151  SER151      0.2089
    110  OG        16.5370   28.8000   68.0640 O.3   151  SER151     -0.2183
@<TRIPOS>BOND
     1    59    60   ar
     2    59    57   ar
     3    60    58   ar
     4    57    54   ar
     5    58    56   ar
     6    54    56   ar
     7    54    52   ar
     8    43    42    2
     9    56    55   ar
    10    51    52    1
    11    51    48    1
    12    52    53   ar
    13    46    45    1
    14    46    40    1
    15    50    49    2
    16    42    41    1
    17    42    47   am
    18    49    48    1
    19    45    44    1
    20    44    41    1
    21    40    41    1
    22    55    53   ar
    23    48    47    1
    24    77    78    1
    25    77    74    1
    26    76    75    2
    27    78    79    1
    28    74    75    1
    29    74    73    1
    30    79    73    1
    31    73    63   am
    32    93    91    1
    33     8     6   ar
    34    83    82    2
    35    63    64    2
    36    63    62    1
    37    86    84    1
    38    80    81    1
    39    91    92    1
    40    91    88    1
    41     4     3    2
    42     5     6    1
    43     5     2    1
    44     6     7   ar
    45    82    81    1
    46    61    62    1
    47    81    84    1
    48    88    87    1
    49    88    89    1
    50    62    65    1
    51     3     2    1
    52     3     9   am
    53    84    85    1
    54     2     1    1
    55    90    89    2
    56    12    11    2
    57    24    22   ar
    58    11    10    1
    59    89    94   am
    60    21    22    1
    61    21    18    1
    62    22    23   ar
    63     9    10    1
    64    17    18    1
    65    10    13    1
    66    65    66    1
    67    68    66   ar
    68    68    70   ar
    69    18    19    1
    70    94    95    1
    71    66    67   ar
    72    16    14    1
    73    70    71   ar
    74    30    29    1
    75    13    14    1
    76    95    98    1
    77    95    96    1
    78   110   109    1
    79    19    20    2
    80    14    15    1
    81    29    26    1
    82    67    69   ar
    83    98    99    1
    84    71    69   ar
    85    71    72    1
    86    96    97    2
    87    99   100   ar
    88    99   101   ar
    89   109   106    1
    90   100   102   ar
    91   101   103   ar
    92   105   106    1
    93    25    26    1
    94   102   104   ar
    95   103   104   ar
    96    26    27    1
    97   106   107    1
    98    27    28    2
    99    39    37   am
   100   107   108    2
   101    38    37    2
   102    37    36    1
   103    36    35    1
   104    35    32    1
   105    31    32    1
   106    32    33    1
   107    33    34    2
