@<TRIPOS>MOLECULE
tmp/1rqpA01.pdb
 116 114 0 0 0
SMALL
GASTEIGER

@<TRIPOS>ATOM
      1  N         33.2500   13.3240   59.9200 N.3   203  ASP203     -0.1225
      2  CA        33.6510   13.5410   61.2960 C.3   203  ASP203      0.1805
      3  C         34.7640   14.5790   61.3090 C.2   203  ASP203      0.2597
      4  O         35.9390   14.2260   61.1890 O.2   203  ASP203     -0.2718
      5  CB        34.1130   12.1960   61.8530 C.3   203  ASP203      0.1424
      6  CG        34.5650   12.2610   63.2980 C.2   203  ASP203      0.3668
      7  OD1       34.0380   13.0860   64.0720 O.co2 203  ASP203     -0.2456
      8  OD2       35.4440   11.4710   63.7210 O.co2 203  ASP203     -0.2456
      9  N         34.3860   15.8630   61.4090 N.am  204  HIS204     -0.1975
     10  CA        35.3560   16.9690   61.4190 C.3   204  HIS204      0.1656
     11  C         35.9900   17.0420   62.7980 C.2   204  HIS204      0.2291
     12  O         35.2940   16.7050   63.7670 O.2   204  HIS204     -0.2864
     13  CB        34.6700   18.2820   61.1000 C.3   204  HIS204      0.0771
     14  CG        33.8510   18.2550   59.8450 C.ar  204  HIS204      0.0820
     15  ND1       34.3890   17.9410   58.6160 N.ar  204  HIS204     -0.2267
     16  CD2       32.5360   18.5090   59.6240 C.ar  204  HIS204      0.1154
     17  CE1       33.4510   18.0090   57.6900 C.ar  204  HIS204      0.1986
     18  NE2       32.3090   18.3550   58.2670 N.ar  204  HIS204     -0.2212
     19  N         38.7830   15.7240   61.3690 N.3   206  PHE206     -0.1241
     20  CA        39.7050   14.6730   60.9120 C.3   206  PHE206      0.1605
     21  C         39.4320   14.2210   59.4670 C.2   206  PHE206      0.2264
     22  O         40.3040   13.7480   58.8040 O.2   206  PHE206     -0.2867
     23  CB        39.4990   13.4660   61.8390 C.3   206  PHE206      0.0534
     24  CG        39.5090   13.8450   63.2640 C.ar  206  PHE206     -0.0203
     25  CD1       40.6060   14.4770   63.7880 C.ar  206  PHE206     -0.0042
     26  CD2       38.3840   13.6950   64.0440 C.ar  206  PHE206     -0.0042
     27  CE1       40.6050   14.9310   65.1630 C.ar  206  PHE206     -0.0003
     28  CE2       38.3730   14.1290   65.3730 C.ar  206  PHE206     -0.0003
     29  CZ        39.4640   14.7310   65.9300 C.ar  206  PHE206     -0.0000
     30  N         37.1080   11.7220   58.9420 N.3   208  ASN208     -0.1240
     31  CA        36.6550   10.3520   58.9750 C.3   208  ASN208      0.1653
     32  C         35.2460   10.2860   58.3860 C.2   208  ASN208      0.2266
     33  O         34.5380   11.2780   58.3420 O.2   208  ASN208     -0.2867
     34  CB        36.6950    9.8050   60.4060 C.3   208  ASN208      0.1155
     35  CG        38.0410   10.0690   61.0910 C.2   208  ASN208      0.2627
     36  OD1       39.0800    9.9400   60.4720 O.2   208  ASN208     -0.2716
     37  ND2       38.0070   10.4000   62.3860 N.am  208  ASN208     -0.0877
     38  N         31.5830    8.5340   58.6890 N.3   210  TRP210     -0.1241
     39  CA        30.6070    7.8200   59.4960 C.3   210  TRP210      0.1605
     40  C         29.4320    7.3860   58.6420 C.2   210  TRP210      0.2264
     41  O         28.8990    8.1690   57.8250 O.2   210  TRP210     -0.2867
     42  CB        30.0900    8.7230   60.6230 C.3   210  TRP210      0.0550
     43  CG        31.0850    9.0110   61.7090 C.ar  210  TRP210      0.0003
     44  CD1       32.3810    8.5890   61.7770 C.ar  210  TRP210      0.0946
     45  CD2       30.8710    9.7940   62.8940 C.ar  210  TRP210      0.0152
     46  NE1       32.9490    8.9970   62.9540 N.ar  210  TRP210     -0.2442
     47  CE2       32.0730    9.7680   63.6390 C.ar  210  TRP210      0.0810
     48  CE3       29.7830   10.4950   63.4050 C.ar  210  TRP210      0.0012
     49  CZ2       32.2210   10.4310   64.8840 C.ar  210  TRP210      0.0191
     50  CZ3       29.9020   11.1190   64.6410 C.ar  210  TRP210      0.0001
     51  CH2       31.1260   11.1100   65.3500 C.ar  210  TRP210      0.0015
     52  N         42.1370    3.2680   64.6980 N.3   247  PHE247     -0.1241
     53  CA        42.8080    3.7720   63.4880 C.3   247  PHE247      0.1605
     54  C         44.1860    3.1890   63.3330 C.2   247  PHE247      0.2264
     55  O         44.5870    2.8350   62.2280 O.2   247  PHE247     -0.2867
     56  CB        42.9780    5.2870   63.5600 C.3   247  PHE247      0.0534
     57  CG        41.7080    6.0240   63.9150 C.ar  247  PHE247     -0.0203
     58  CD1       40.7130    6.2100   62.9730 C.ar  247  PHE247     -0.0042
     59  CD2       41.5170    6.5100   65.2030 C.ar  247  PHE247     -0.0042
     60  CE1       39.5400    6.8780   63.3140 C.ar  247  PHE247     -0.0003
     61  CE2       40.3750    7.2250   65.5290 C.ar  247  PHE247     -0.0003
     62  CZ        39.3960    7.3830   64.6080 C.ar  247  PHE247     -0.0000
     63  N         32.8880    3.5990   65.4090 N.3   261  ASN261     -0.1225
     64  CA        33.1540    4.9020   66.0360 C.3   261  ASN261      0.1785
     65  C         32.5920    4.9410   67.4560 C.2   261  ASN261      0.2598
     66  O         31.9190    4.0220   67.8860 O.2   261  ASN261     -0.2718
     67  CB        32.6360    6.0800   65.1980 C.3   261  ASN261      0.1169
     68  CG        31.1290    6.1290   65.0950 C.2   261  ASN261      0.2627
     69  OD1       30.4250    5.6730   65.9630 O.2   261  ASN261     -0.2716
     70  ND2       30.6260    6.7120   64.0020 N.am  261  ASN261     -0.0877
     71  N         32.8400    6.0420   68.1450 N.am  262  SER262     -0.1938
     72  CA        32.5440    6.1380   69.5710 C.3   262  SER262      0.2055
     73  C         31.0550    6.2950   69.8200 C.2   262  SER262      0.2642
     74  O         30.6340    6.3740   70.9640 O.2   262  SER262     -0.2714
     75  CB        33.2980    7.3360   70.1780 C.3   262  SER262      0.2130
     76  OG        32.7010    8.5680   69.7450 O.3   262  SER262     -0.2179
     77  N         30.2700    6.3880   68.7460 N.am  263  ARG263     -0.1977
     78  CA        28.8250    6.4430   68.8330 C.3   263  ARG263      0.1597
     79  C         28.1620    5.1280   68.4950 C.2   263  ARG263      0.2287
     80  O         26.9500    5.0500   68.6210 O.2   263  ARG263     -0.2864
     81  CB        28.2470    7.5810   67.9560 C.3   263  ARG263      0.0334
     82  CG        29.1130    8.8550   67.8700 C.3   263  ARG263      0.0492
     83  CD        29.5470    9.3880   69.2190 C.3   263  ARG263      0.2205
     84  NE        30.2750   10.6490   69.1230 N.pl3 263  ARG263     -0.0865
     85  CZ        29.7070   11.8510   69.1400 C.cat 263  ARG263      0.5346
     86  NH1       28.3790   11.9560   69.3130 N.pl3 263  ARG263      0.1354
     87  NH2       30.4750   12.9450   69.0390 N.pl3 263  ARG263      0.1354
     88  N         41.4000    7.0070   57.4020 N.3   270  ARG270     -0.1231
     89  CA        42.8210    6.7100   57.2440 C.3   270  ARG270      0.1694
     90  C         43.4830    6.8910   58.5880 C.2   270  ARG270      0.2592
     91  O         43.0610    7.7100   59.3990 O.2   270  ARG270     -0.2718
     92  CB        43.4300    7.6670   56.2330 C.3   270  ARG270      0.0321
     93  CG        42.9680    7.4710   54.7840 C.3   270  ARG270      0.0489
     94  CD        44.0650    7.6550   53.7840 C.3   270  ARG270      0.2205
     95  NE        44.1940    9.0440   53.3770 N.pl3 270  ARG270     -0.0865
     96  CZ        45.3320    9.6550   53.0680 C.cat 270  ARG270      0.5346
     97  NH1       46.5040    9.0090   53.0400 N.pl3 270  ARG270      0.1354
     98  NH2       45.2930   10.9420   52.7340 N.pl3 270  ARG270      0.1354
     99  N         44.5430    6.1240   58.8270 N.am  271  ASN271     -0.1960
    100  CA        45.2900    6.2250   60.0530 C.3   271  ASN271      0.1819
    101  C         46.1100    7.5390   60.0960 C.2   271  ASN271      0.2621
    102  O         47.0320    7.6770   59.3490 O.2   271  ASN271     -0.2715
    103  CB        46.2360    5.0290   60.1840 C.3   271  ASN271      0.1195
    104  CG        47.0660    5.0990   61.4420 C.2   271  ASN271      0.2630
    105  OD1       46.6490    5.7200   62.4420 O.2   271  ASN271     -0.2716
    106  ND2       48.2380    4.4850   61.4140 N.am  271  ASN271     -0.0877
    107  N         45.7260    8.4670   60.9720 N.am  272  ALA272     -0.1963
    108  CA        46.3500    9.7810   61.1500 C.3   272  ALA272      0.1728
    109  C         46.5750   10.4800   59.7950 C.2   272  ALA272      0.2616
    110  O         47.6150   11.0790   59.5250 O.2   272  ALA272     -0.2715
    111  CB        47.6210    9.6840   61.9550 C.3   272  ALA272      0.0334
    112  N         45.5770   10.3460   58.9410 N.am  273  ALA273     -0.1977
    113  CA        45.4310   11.1760   57.7740 C.3   273  ALA273      0.1597
    114  C         43.9350   11.3240   57.5050 C.2   273  ALA273      0.2287
    115  O         43.1130   10.5380   57.9860 O.2   273  ALA273     -0.2864
    116  CB        46.1280   10.5450   56.5990 C.3   273  ALA273      0.0319
@<TRIPOS>BOND
     1    98    96    1
     2    97    96    1
     3    96    95    2
     4    95    94    1
     5    94    93    1
     6    93    92    1
     7    92    89    1
     8   116   113    1
     9    89    88    1
    10    89    90    1
    11   114   113    1
    12   114   115    2
    13    17    18   ar
    14    17    15   ar
    15   113   112    1
    16    41    40    2
    17    18    16   ar
    18    33    32    2
    19    32    31    1
    20    90    99   am
    21    90    91    2
    22    15    14   ar
    23    40    39    1
    24    38    39    1
    25    22    21    2
    26    99   100    1
    27   112   109   am
    28    30    31    1
    29    31    34    1
    30   102   101    2
    31    21    20    1
    32    39    42    1
    33   110   109    2
    34    16    14   ar
    35   109   108    1
    36    14    13    1
    37     1     2    1
    38   100   101    1
    39   100   103    1
    40   101   107   am
    41   103   104    1
    42    34    35    1
    43    36    35    2
    44    42    43    1
    45    20    19    1
    46    20    23    1
    47   107   108    1
    48    35    37   am
    49    13    10    1
    50   108   111    1
    51     4     3    2
    52     2     3    1
    53     2     5    1
    54     3     9   am
    55     9    10    1
    56   106   104   am
    57    10    11    1
    58   104   105    2
    59    43    44   ar
    60    43    45   ar
    61    44    46   ar
    62    23    24    1
    63     5     6    1
    64    55    54    2
    65    11    12    2
    66    45    48   ar
    67    45    47   ar
    68    46    47   ar
    69    58    60   ar
    70    58    57   ar
    71    24    25   ar
    72    24    26   ar
    73     6     8   ar
    74     6     7   ar
    75    60    62   ar
    76    54    53    1
    77    48    50   ar
    78    53    56    1
    79    53    52    1
    80    56    57    1
    81    47    49   ar
    82    25    27   ar
    83    57    59   ar
    84    70    68   am
    85    26    28   ar
    86    62    61   ar
    87    50    51   ar
    88    49    51   ar
    89    68    67    1
    90    68    69    2
    91    27    29   ar
    92    67    64    1
    93    59    61   ar
    94    28    29   ar
    95    63    64    1
    96    64    65    1
    97    65    66    2
    98    65    71   am
    99    82    81    1
   100    82    83    1
   101    81    78    1
   102    71    72    1
   103    79    80    2
   104    79    78    1
   105    77    78    1
   106    77    73   am
   107    87    85    1
   108    84    85    2
   109    84    83    1
   110    85    86    1
   111    72    73    1
   112    72    75    1
   113    76    75    1
   114    73    74    2
