@<TRIPOS>MOLECULE
tmp/1rqqA01.pdb
 166 153 0 0 0
SMALL
GASTEIGER

@<TRIPOS>ATOM
      1  N         26.4300   40.3140   47.3530 N.3    16  LEU16      -0.1231
      2  CA        25.7100   39.5660   48.3720 C.3    16  LEU16       0.1693
      3  C         26.5310   38.4030   48.8830 C.2    16  LEU16       0.2593
      4  O         26.5370   38.1080   50.0770 O.2    16  LEU16      -0.2718
      5  CB        24.3880   39.0460   47.8150 C.3    16  LEU16       0.0284
      6  CG        23.2840   40.0920   47.6570 C.3    16  LEU16       0.0019
      7  CD1       22.0510   39.4660   47.0230 C.3    16  LEU16       0.0001
      8  CD2       22.9410   40.6600   49.0210 C.3    16  LEU16       0.0001
      9  N         27.2260   37.7400   47.9680 N.am   17  GLY17      -0.1942
     10  CA        28.0340   36.6050   48.3520 C.3    17  GLY17       0.2014
     11  C         28.7050   35.9730   47.1570 C.2    17  GLY17       0.2639
     12  O         28.2700   36.1290   46.0170 O.2    17  GLY17      -0.2714
     13  N         29.7820   35.2530   47.4250 N.am   18  GLN18      -0.1963
     14  CA        30.5160   34.6040   46.3690 C.3    18  GLN18       0.1733
     15  C         29.9860   33.2030   46.1550 C.2    18  GLN18       0.2617
     16  O         29.7040   32.4820   47.1090 O.2    18  GLN18      -0.2715
     17  CB        31.9900   34.5550   46.7250 C.3    18  GLN18       0.0408
     18  CG        32.8340   33.9040   45.6720 C.3    18  GLN18       0.0908
     19  CD        34.2820   34.2710   45.8210 C.2    18  GLN18       0.2608
     20  OE1       34.8490   34.1860   46.9140 O.2    18  GLN18      -0.2717
     21  NE2       34.9010   34.6860   44.7170 N.am   18  GLN18      -0.0878
     22  N         29.8450   32.8340   44.8890 N.am   19  GLY19      -0.1940
     23  CA        29.3760   31.5090   44.5440 C.3    19  GLY19       0.2014
     24  C         30.6030   30.7290   44.1190 C.2    19  GLY19       0.2639
     25  O         31.6610   31.3220   43.9230 O.2    19  GLY19      -0.2714
     26  N         30.4840   29.4150   43.9660 N.am   20  SER20      -0.1949
     27  CA        31.6460   28.6210   43.5810 C.3    20  SER20       0.1924
     28  C         32.3180   29.0400   42.2660 C.2    20  SER20       0.2314
     29  O         33.5230   28.8560   42.1110 O.2    20  SER20      -0.2863
     30  CB        31.3180   27.1210   43.5650 C.3    20  SER20       0.2116
     31  OG        30.2680   26.8140   42.6770 O.3    20  SER20      -0.2180
     32  N         31.0210   32.1060   40.4730 N.3    22  GLY22      -0.1225
     33  CA        30.4010   33.3490   40.0880 C.3    22  GLY22       0.1811
     34  C         30.2030   34.1920   41.3200 C.2    22  GLY22       0.2280
     35  O         30.5180   33.7680   42.4260 O.2    22  GLY22      -0.2866
     36  N         27.3530   36.7200   43.4030 N.3    24  VAL24      -0.1245
     37  CA        25.9470   37.0920   43.4780 C.3    24  VAL24       0.1561
     38  C         25.8540   38.5020   44.0320 C.2    24  VAL24       0.2260
     39  O         26.3540   38.7980   45.1110 O.2    24  VAL24      -0.2867
     40  CB        25.1250   36.1210   44.3510 C.3    24  VAL24       0.0252
     41  CG1       23.7040   36.6390   44.5290 C.3    24  VAL24       0.0019
     42  CG2       25.0740   34.7690   43.6830 C.3    24  VAL24       0.0019
     43  N         18.3110   39.9800   43.0130 N.3    42  ALA42      -0.1245
     44  CA        19.5930   39.3150   43.1980 C.3    42  ALA42       0.1562
     45  C         20.0680   39.0910   41.7740 C.2    42  ALA42       0.2260
     46  O         19.2520   38.8700   40.8830 O.2    42  ALA42      -0.2867
     47  CB        19.4050   37.9810   43.9040 C.3    42  ALA42       0.0290
     48  N         22.9190   36.8420   39.5640 N.3    44  LYS44      -0.1245
     49  CA        23.9730   35.8350   39.5030 C.3    44  LYS44       0.1561
     50  C         24.8460   36.0590   38.2810 C.2    44  LYS44       0.2260
     51  O         24.3470   36.4300   37.2140 O.2    44  LYS44      -0.2867
     52  CB        23.3780   34.4220   39.4450 C.3    44  LYS44       0.0271
     53  CG        23.2200   33.7660   40.8060 C.3    44  LYS44       0.0035
     54  CD        22.8060   32.2860   40.7250 C.3    44  LYS44       0.0206
     55  CE        22.5010   31.7430   42.1360 C.3    44  LYS44       0.1093
     56  NZ        21.9690   30.3510   42.1890 N.3    44  LYS44      -0.1314
     57  N         12.4550   29.9020   44.6990 N.3    74  VAL74      -0.1245
     58  CA        13.0290   31.1950   44.3400 C.3    74  VAL74       0.1561
     59  C         12.6300   31.4500   42.9020 C.2    74  VAL74       0.2260
     60  O         12.8030   30.5880   42.0370 O.2    74  VAL74      -0.2867
     61  CB        14.5590   31.1750   44.4720 C.3    74  VAL74       0.0252
     62  CG1       15.1460   32.4660   43.9420 C.3    74  VAL74       0.0019
     63  CG2       14.9390   30.9840   45.9270 C.3    74  VAL74       0.0019
     64  N         16.9820   37.1810   39.6390 N.3    90  MET90      -0.1230
     65  CA        15.9610   36.4390   40.3600 C.3    90  MET90       0.1702
     66  C         15.4940   37.2200   41.5790 C.2    90  MET90       0.2592
     67  O         16.0290   38.2950   41.8430 O.2    90  MET90      -0.2718
     68  CB        16.5260   35.1010   40.7930 C.3    90  MET90       0.0401
     69  CG        17.8480   35.2110   41.5070 C.3    90  MET90       0.0596
     70  SD        18.4360   33.5740   41.9500 S.3    90  MET90      -0.1393
     71  CE        18.4850   32.8180   40.3090 C.3    90  MET90       0.0692
     72  N         14.5070   36.6890   42.3190 N.am   91  GLU91      -0.1966
     73  CA        14.0020   37.3690   43.5040 C.3    91  GLU91       0.1733
     74  C         15.0570   37.3840   44.5990 C.2    91  GLU91       0.2616
     75  O         15.8440   36.4600   44.7540 O.2    91  GLU91      -0.2715
     76  CB        12.6890   36.7350   44.0130 C.3    91  GLU91       0.0429
     77  CG        12.8130   35.4940   44.8760 C.3    91  GLU91       0.1163
     78  CD        11.4580   34.9960   45.4170 C.2    91  GLU91       0.3649
     79  OE1       10.8820   35.6140   46.3380 O.co2  91  GLU91      -0.2457
     80  OE2       10.9660   33.9710   44.9110 O.co2  91  GLU91      -0.2457
     81  N         15.0580   38.4680   45.3520 N.am   92  LEU92      -0.1963
     82  CA        15.9990   38.6800   46.4200 C.3    92  LEU92       0.1728
     83  C         15.5410   37.9640   47.6770 C.2    92  LEU92       0.2616
     84  O         14.4570   38.2200   48.1770 O.2    92  LEU92      -0.2715
     85  CB        16.0930   40.1840   46.6730 C.3    92  LEU92       0.0311
     86  CG        17.0650   40.6800   47.7320 C.3    92  LEU92       0.0022
     87  CD1       18.4660   40.2530   47.3620 C.3    92  LEU92       0.0001
     88  CD2       16.9620   42.1970   47.8360 C.3    92  LEU92       0.0001
     89  N         16.3670   37.0630   48.1850 N.am   93  MET93      -0.1977
     90  CA        16.0410   36.3560   49.4050 C.3    93  MET93       0.1605
     91  C         16.7680   37.1230   50.5030 C.2    93  MET93       0.2287
     92  O         17.9170   36.8440   50.8340 O.2    93  MET93      -0.2864
     93  CB        16.5180   34.9160   49.2960 C.3    93  MET93       0.0413
     94  CG        15.8300   34.1570   48.1690 C.3    93  MET93       0.0598
     95  SD        14.0050   34.3210   48.2100 S.3    93  MET93      -0.1393
     96  CE        13.6450   33.2520   49.7110 C.3    93  MET93       0.0692
     97  N         19.2340   35.5630   53.0230 N.3    96  GLY96      -0.1210
     98  CA        20.1960   34.6120   52.4960 C.3    96  GLY96       0.1956
     99  C         19.8180   33.1430   52.5920 C.2    96  GLY96       0.2611
    100  O         18.6410   32.7750   52.6440 O.2    96  GLY96      -0.2717
    101  N         20.8320   32.2910   52.6270 N.am   97  ASP97      -0.1973
    102  CA        20.5910   30.8650   52.6920 C.3    97  ASP97       0.1709
    103  C         20.2760   30.3670   54.0980 C.2    97  ASP97       0.2293
    104  O         20.7290   30.9290   55.1010 O.2    97  ASP97      -0.2864
    105  CB        21.7920   30.1010   52.1430 C.3    97  ASP97       0.1436
    106  CG        23.0340   30.3270   52.9600 C.2    97  ASP97       0.3671
    107  OD1       23.6100   31.4380   52.8730 O.co2  97  ASP97      -0.2456
    108  OD2       23.4280   29.4000   53.7000 O.co2  97  ASP97      -0.2456
    109  N         20.2310   18.3900   44.3770 N.3   146  ASP146     -0.1239
    110  CA        21.1060   19.0580   45.3230 C.3   146  ASP146      0.1674
    111  C         20.3650   19.7860   46.4450 C.2   146  ASP146      0.2266
    112  O         20.6790   20.9300   46.7890 O.2   146  ASP146     -0.2867
    113  CB        22.0340   20.0140   44.5820 C.3   146  ASP146      0.1410
    114  CG        23.2160   20.4430   45.4280 C.2   146  ASP146      0.3668
    115  OD1       23.5000   19.7590   46.4380 O.co2 146  ASP146     -0.2456
    116  OD2       23.8660   21.4520   45.0780 O.co2 146  ASP146     -0.2456
    117  N         22.1770   24.8240   52.3830 N.3   150  ARG150     -0.1231
    118  CA        22.8650   25.9220   51.7090 C.3   150  ARG150      0.1694
    119  C         22.1000   26.3540   50.4650 C.2   150  ARG150      0.2592
    120  O         22.2520   27.4800   50.0060 O.2   150  ARG150     -0.2718
    121  CB        24.3040   25.5330   51.3320 C.3   150  ARG150      0.0321
    122  CG        24.3890   24.2500   50.5510 C.3   150  ARG150      0.0489
    123  CD        25.7510   24.0030   49.9170 C.3   150  ARG150      0.2205
    124  NE        25.6210   22.8710   49.0040 N.pl3 150  ARG150     -0.0865
    125  CZ        25.5170   21.6150   49.4120 C.cat 150  ARG150      0.5346
    126  NH1       25.5530   21.3470   50.7040 N.pl3 150  ARG150      0.1354
    127  NH2       25.3210   20.6330   48.5480 N.pl3 150  ARG150      0.1354
    128  N         21.2760   25.4610   49.9230 N.am  151  ASN151     -0.1974
    129  CA        20.5030   25.7850   48.7330 C.3   151  ASN151      0.1688
    130  C         19.0500   26.1700   49.0130 C.2   151  ASN151      0.2292
    131  O         18.2530   26.3290   48.0890 O.2   151  ASN151     -0.2864
    132  CB        20.5650   24.6270   47.7400 C.3   151  ASN151      0.1181
    133  CG        21.9400   24.4780   47.1060 C.2   151  ASN151      0.2629
    134  OD1       22.7660   25.3870   47.1650 O.2   151  ASN151     -0.2716
    135  ND2       22.1800   23.3380   46.4820 N.am  151  ASN151     -0.0877
    136  N         16.6220   29.0450   50.6110 N.3   153  MET153     -0.1245
    137  CA        16.7740   30.4600   50.8910 C.3   153  MET153      0.1570
    138  C         15.6930   30.9800   51.8160 C.2   153  MET153      0.2261
    139  O         14.5900   30.4310   51.8790 O.2   153  MET153     -0.2867
    140  CB        16.7750   31.2550   49.5820 C.3   153  MET153      0.0387
    141  CG        17.7640   30.7570   48.5530 C.3   153  MET153      0.0595
    142  SD        19.5000   30.9430   49.0470 S.3   153  MET153     -0.1393
    143  CE        19.6470   32.7170   49.0530 C.3   153  MET153      0.0692
    144  N         18.9260   27.3520   43.8630 N.3   164  ASP164     -0.1239
    145  CA        20.0560   26.6950   43.2080 C.3   164  ASP164      0.1674
    146  C         19.6750   25.4720   42.3810 C.2   164  ASP164      0.2266
    147  O         19.6980   24.3440   42.8760 O.2   164  ASP164     -0.2867
    148  CB        21.1280   26.2960   44.2370 C.3   164  ASP164      0.1410
    149  CG        22.4550   25.9130   43.5770 C.2   164  ASP164      0.3668
    150  OD1       22.4220   25.4580   42.4070 O.co2 164  ASP164     -0.2456
    151  OD2       23.5270   26.0500   44.2190 O.co2 164  ASP164     -0.2456
    152  N         22.1550   21.6620   39.3660 N.3   167  MET167     -0.1245
    153  CA        22.1480   20.2240   39.1260 C.3   167  MET167      0.1570
    154  C         20.7800   19.6390   38.7930 C.2   167  MET167      0.2261
    155  O         20.6530   18.4330   38.5760 O.2   167  MET167     -0.2867
    156  CB        22.7210   19.4950   40.3440 C.3   167  MET167      0.0387
    157  CG        24.1730   19.8310   40.6380 C.3   167  MET167      0.0595
    158  SD        24.9080   18.8100   41.9510 S.3   167  MET167     -0.1393
    159  CE        24.6000   17.1280   41.3060 C.3   167  MET167      0.0692
    160  N         27.1980   16.1820   45.6540 N.3   183  PRO183     -0.2116
    161  CA        26.9840   16.5190   47.0670 C.3   183  PRO183      0.1372
    162  C         26.7530   15.2370   47.8770 C.2   183  PRO183      0.2244
    163  O         25.6840   15.0090   48.4460 O.2   183  PRO183     -0.2868
    164  CB        25.7570   17.4140   47.0130 C.3   183  PRO183      0.0268
    165  CG        24.9600   16.7770   45.8960 C.3   183  PRO183      0.0207
    166  CD        26.0090   16.5050   44.8450 C.3   183  PRO183      0.0892
@<TRIPOS>BOND
     1    51    50    2
     2    50    49    1
     3   155   154    2
     4   154   153    1
     5   153   152    1
     6   153   156    1
     7    52    49    1
     8    52    53    1
     9    49    48    1
    10    64    65    1
    11    33    32    1
    12    33    34    1
    13    71    70    1
    14   156   157    1
    15    65    68    1
    16    65    66    1
    17   157   158    1
    18    54    53    1
    19    54    55    1
    20    68    69    1
    21    46    45    2
    22   159   158    1
    23    34    35    2
    24    69    70    1
    25    66    67    2
    26    66    72   am
    27    45    44    1
    28    60    59    2
    29    29    28    2
    30    55    56    1
    31    28    27    1
    32    72    73    1
    33   146   147    2
    34   146   145    1
    35   150   149   ar
    36    31    30    1
    37    59    58    1
    38    43    44    1
    39    44    47    1
    40   145   144    1
    41   145   148    1
    42    36    37    1
    43    37    38    1
    44    37    40    1
    45    73    76    1
    46    73    74    1
    47    30    27    1
    48   149   151   ar
    49   149   148    1
    50    27    26    1
    51    42    40    1
    52    25    24    2
    53    62    61    1
    54    26    24   am
    55    76    77    1
    56    38    39    2
    57    24    23    1
    58    58    61    1
    59    58    57    1
    60    40    41    1
    61   109   110    1
    62    61    63    1
    63    23    22    1
    64   113   110    1
    65   113   114    1
    66    74    75    2
    67    74    81   am
    68    21    19   am
    69   166   160    1
    70   166   165    1
    71    77    78    1
    72    22    15   am
    73    80    78   ar
    74   116   114   ar
    75   110   111    1
    76    81    82    1
    77    78    79   ar
    78   114   115   ar
    79   160   161    1
    80    18    19    1
    81    18    17    1
    82    19    20    2
    83   165   164    1
    84    12    11    2
    85    15    14    1
    86    15    16    2
    87    14    17    1
    88    14    13    1
    89    82    85    1
    90    82    83    1
    91   111   112    2
    92   135   133   am
    93    85    86    1
    94   164   161    1
    95     7     6    1
    96   161   162    1
    97   133   134    2
    98   133   132    1
    99    11    13   am
   100    11    10    1
   101     1     2    1
   102    87    86    1
   103     6     5    1
   104     6     8    1
   105    83    84    2
   106    83    89   am
   107    86    88    1
   108   132   129    1
   109     5     2    1
   110   162   163    2
   111     9    10    1
   112     9     3   am
   113   131   130    2
   114    94    95    1
   115    94    93    1
   116    89    90    1
   117    95    96    1
   118     2     3    1
   119   127   125    1
   120   141   142    1
   121   141   140    1
   122   129   130    1
   123   129   128    1
   124     3     4    2
   125   124   125    2
   126   124   123    1
   127   142   143    1
   128    93    90    1
   129    90    91    1
   130   125   126    1
   131   140   137    1
   132   123   122    1
   133   128   119   am
   134   120   119    2
   135   119   118    1
   136    91    92    2
   137   122   121    1
   138   136   137    1
   139   137   138    1
   140   121   118    1
   141   118   117    1
   142   138   139    2
   143   105   102    1
   144   105   106    1
   145    98    99    1
   146    98    97    1
   147    99   101   am
   148    99   100    2
   149   101   102    1
   150   102   103    1
   151   107   106   ar
   152   106   108   ar
   153   103   104    2
