@<TRIPOS>MOLECULE
tmp/1rqxA01.pdb
 105 101 0 0 0
SMALL
GASTEIGER

@<TRIPOS>ATOM
      1  N         18.1860   27.0330  157.4700 N.3    51  LYS51      -0.1245
      2  CA        19.2250   28.0160  157.2030 C.3    51  LYS51       0.1561
      3  C         18.8420   29.3830  157.7370 C.2    51  LYS51       0.2260
      4  O         19.7070   30.1960  158.0570 O.2    51  LYS51      -0.2867
      5  CB        19.5060   28.1440  155.7090 C.3    51  LYS51       0.0271
      6  CG        19.6950   26.8410  154.9910 C.3    51  LYS51       0.0035
      7  CD        20.6260   25.8590  155.6730 C.3    51  LYS51       0.0206
      8  CE        20.9400   24.7350  154.6480 C.3    51  LYS51       0.1093
      9  NZ        21.2610   23.3600  155.1090 N.3    51  LYS51      -0.1314
     10  N         26.3510   30.4400  148.3420 N.3    73  ILE73      -0.1231
     11  CA        26.5200   29.4130  147.3400 C.3    73  ILE73       0.1692
     12  C         25.7470   28.1590  147.6740 C.2    73  ILE73       0.2592
     13  O         25.3490   27.9580  148.8220 O.2    73  ILE73      -0.2718
     14  CB        28.0480   29.0870  147.2350 C.3    73  ILE73       0.0266
     15  CG1       28.3170   27.9430  146.2720 C.3    73  ILE73       0.0019
     16  CG2       28.5950   28.7100  148.6090 C.3    73  ILE73       0.0020
     17  CD1       29.8010   27.7390  146.0280 C.3    73  ILE73       0.0001
     18  N         25.5510   27.3200  146.6570 N.am   74  GLY74      -0.1957
     19  CA        24.8450   26.0590  146.8150 C.3    74  GLY74       0.1869
     20  C         24.5320   25.4740  145.4510 C.2    74  GLY74       0.2309
     21  O         24.8210   26.0920  144.4200 O.2    74  GLY74      -0.2863
     22  N         19.3600   24.5430  145.7810 N.3    78  SER78      -0.1202
     23  CA        19.7570   24.9120  147.1450 C.3    78  SER78       0.2020
     24  C         18.6400   25.6410  147.9340 C.2    78  SER78       0.2619
     25  O         17.9500   26.5120  147.4060 O.2    78  SER78      -0.2717
     26  CB        20.9920   25.8100  147.0810 C.3    78  SER78       0.2103
     27  OG        21.1750   26.5580  148.2720 O.3    78  SER78      -0.2182
     28  N         18.4600   25.2860  149.2020 N.am   79  ASN79      -0.1960
     29  CA        17.4460   25.9420  150.0190 C.3    79  ASN79       0.1819
     30  C         18.0610   27.2160  150.6020 C.2    79  ASN79       0.2621
     31  O         17.4080   28.2730  150.7110 O.2    79  ASN79      -0.2715
     32  CB        17.0190   25.0010  151.1410 C.3    79  ASN79       0.1195
     33  CG        16.2740   23.7790  150.6210 C.2    79  ASN79       0.2630
     34  OD1       15.1880   23.9070  150.0520 O.2    79  ASN79      -0.2716
     35  ND2       16.8490   22.5920  150.8150 N.am   79  ASN79      -0.0877
     36  N         19.3390   27.0720  150.9530 N.am   80  GLN80      -0.1977
     37  CA        20.1760   28.0920  151.5520 C.3    80  GLN80       0.1601
     38  C         20.2190   29.3550  150.7290 C.2    80  GLN80       0.2287
     39  O         20.0050   30.4580  151.2600 O.2    80  GLN80      -0.2864
     40  CB        21.5860   27.5200  151.7080 C.3    80  GLN80       0.0394
     41  CG        22.7590   28.5100  151.7710 C.3    80  GLN80       0.0908
     42  CD        22.9770   29.1210  153.1350 C.2    80  GLN80       0.2608
     43  OE1       22.6250   28.5310  154.1680 O.2    80  GLN80      -0.2717
     44  NE2       23.5790   30.3080  153.1530 N.am   80  GLN80      -0.0878
     45  N         25.6710   20.6050  141.7020 N.3   102  TRP102     -0.1241
     46  CA        26.0610   19.6170  142.6950 C.3   102  TRP102      0.1605
     47  C         25.3770   18.2720  142.5800 C.2   102  TRP102      0.2264
     48  O         25.7130   17.3600  143.3120 O.2   102  TRP102     -0.2867
     49  CB        25.7920   20.1340  144.0940 C.3   102  TRP102      0.0550
     50  CG        26.6670   21.2350  144.5190 C.ar  102  TRP102      0.0003
     51  CD1       27.6890   21.8010  143.8130 C.ar  102  TRP102      0.0946
     52  CD2       26.6490   21.8790  145.7910 C.ar  102  TRP102      0.0152
     53  NE1       28.3150   22.7600  144.5750 N.ar  102  TRP102     -0.2442
     54  CE2       27.6940   22.8270  145.7940 C.ar  102  TRP102      0.0810
     55  CE3       25.8550   21.7420  146.9340 C.ar  102  TRP102      0.0012
     56  CZ2       27.9650   23.6350  146.8970 C.ar  102  TRP102      0.0191
     57  CZ3       26.1260   22.5420  148.0290 C.ar  102  TRP102      0.0001
     58  CH2       27.1720   23.4780  148.0040 C.ar  102  TRP102      0.0015
     59  N         28.5400   27.5920  152.1230 N.3   153  ALA153     -0.1231
     60  CA        27.4800   26.6140  151.9660 C.3   153  ALA153      0.1694
     61  C         26.8030   26.2510  153.2830 C.2   153  ALA153      0.2592
     62  O         27.4520   25.8310  154.2350 O.2   153  ALA153     -0.2718
     63  CB        28.0250   25.3570  151.2940 C.3   153  ALA153      0.0304
     64  N         25.4830   26.4170  153.3140 N.am  154  GLY154     -0.1957
     65  CA        24.6990   26.0900  154.4940 C.3   154  GLY154      0.1869
     66  C         24.9840   26.9570  155.7030 C.2   154  GLY154      0.2309
     67  O         24.3600   26.7840  156.7390 O.2   154  GLY154     -0.2863
     68  N         24.0960   17.5120  156.0750 N.3   191  VAL191     -0.1231
     69  CA        24.8960   17.5750  154.8510 C.3   191  VAL191      0.1692
     70  C         26.1390   18.4680  155.0420 C.2   191  VAL191      0.2592
     71  O         27.2600   17.9570  155.0130 O.2   191  VAL191     -0.2718
     72  CB        24.0580   18.0320  153.6280 C.3   191  VAL191      0.0266
     73  CG1       24.9550   18.2100  152.4170 C.3   191  VAL191      0.0020
     74  CG2       23.0070   16.9680  153.2990 C.3   191  VAL191      0.0020
     75  N         25.9780   19.7770  155.2440 N.am  192  THR192     -0.1953
     76  CA        27.1730   20.5760  155.4500 C.3   192  THR192      0.1897
     77  C         27.4720   20.6920  156.9210 C.2   192  THR192      0.2313
     78  O         28.4640   21.2990  157.3000 O.2   192  THR192     -0.2863
     79  CB        27.1300   21.9710  154.8050 C.3   192  THR192      0.1794
     80  OG1       26.2380   22.8130  155.5240 O.3   192  THR192     -0.2208
     81  CG2       26.7120   21.8670  153.3640 C.3   192  THR192      0.0378
     82  N         24.0360   12.4100  146.6530 N.3   261  TYR261     -0.1241
     83  CA        23.5140   13.6590  147.1750 C.3   261  TYR261      0.1605
     84  C         22.5250   14.1820  146.1190 C.2   261  TYR261      0.2264
     85  O         22.8270   14.1490  144.9320 O.2   261  TYR261     -0.2867
     86  CB        24.6330   14.6750  147.3540 C.3   261  TYR261      0.0534
     87  CG        24.1330   16.0910  147.5210 C.ar  261  TYR261     -0.0201
     88  CD1       23.4390   16.4820  148.6680 C.ar  261  TYR261     -0.0009
     89  CD2       24.3090   17.0330  146.5070 C.ar  261  TYR261     -0.0009
     90  CE1       22.9260   17.7780  148.7940 C.ar  261  TYR261      0.0417
     91  CE2       23.8030   18.3250  146.6230 C.ar  261  TYR261      0.0417
     92  CZ        23.1100   18.6910  147.7610 C.ar  261  TYR261      0.1957
     93  OH        22.5590   19.9510  147.8400 O.3   261  TYR261     -0.2866
     94  N         16.7440   16.0810  151.1480 N.3   287  TYR287     -0.1241
     95  CA        17.0730   16.0840  152.5820 C.3   287  TYR287      0.1605
     96  C         16.1070   15.3940  153.5510 C.2   287  TYR287      0.2264
     97  O         16.3580   14.2750  154.0160 O.2   287  TYR287     -0.2867
     98  CB        17.2540   17.5190  153.0720 C.3   287  TYR287      0.0534
     99  CG        18.2080   18.3460  152.2450 C.ar  287  TYR287     -0.0201
    100  CD1       19.5960   18.2350  152.4320 C.ar  287  TYR287     -0.0009
    101  CD2       17.7380   19.2410  151.2780 C.ar  287  TYR287     -0.0009
    102  CE1       20.4850   18.9860  151.6830 C.ar  287  TYR287      0.0417
    103  CE2       18.6320   20.0020  150.5200 C.ar  287  TYR287      0.0417
    104  CZ        20.0020   19.8610  150.7340 C.ar  287  TYR287      0.1957
    105  OH        20.9170   20.5650  149.9920 O.3   287  TYR287     -0.2866
@<TRIPOS>BOND
     1    45    46    1
     2    47    46    1
     3    47    48    2
     4    46    49    1
     5    51    50   ar
     6    51    53   ar
     7    49    50    1
     8    21    20    2
     9    50    52   ar
    10    53    54   ar
    11    85    84    2
    12    20    19    1
    13    22    23    1
    14    52    54   ar
    15    52    55   ar
    16    54    56   ar
    17    17    15    1
    18    84    83    1
    19    15    14    1
    20    89    91   ar
    21    89    87   ar
    22    91    92   ar
    23    82    83    1
    24    18    19    1
    25    18    12   am
    26    56    58   ar
    27    55    57   ar
    28    26    23    1
    29    26    27    1
    30    23    24    1
    31    83    86    1
    32    14    11    1
    33    14    16    1
    34    11    12    1
    35    11    10    1
    36    86    87    1
    37    25    24    2
    38    87    88   ar
    39    12    13    2
    40    92    93    1
    41    92    90   ar
    42    24    28   am
    43    58    57   ar
    44    88    90   ar
    45    28    29    1
    46   105   104    1
    47    29    30    1
    48    29    32    1
    49    34    33    2
    50   103   104   ar
    51   103   101   ar
    52    30    31    2
    53    30    36   am
    54    33    35   am
    55    33    32    1
    56    38    39    2
    57    38    37    1
    58   104   102   ar
    59    36    37    1
    60    94    95    1
    61   101    99   ar
    62    63    60    1
    63    37    40    1
    64   102   100   ar
    65    40    41    1
    66    41    42    1
    67    60    59    1
    68    60    61    1
    69    99   100   ar
    70    99    98    1
    71    73    72    1
    72    95    98    1
    73    95    96    1
    74    42    44   am
    75    42    43    2
    76    61    64   am
    77    61    62    2
    78    74    72    1
    79    64    65    1
    80    81    79    1
    81    96    97    2
    82    72    69    1
    83    65    66    1
    84     8     9    1
    85     8     7    1
    86    79    76    1
    87    79    80    1
    88    69    70    1
    89    69    68    1
    90     6     7    1
    91     6     5    1
    92    71    70    2
    93    70    75   am
    94    75    76    1
    95    76    77    1
    96    66    67    2
    97     5     2    1
    98    77    78    2
    99     2     1    1
   100     2     3    1
   101     3     4    2
