@<TRIPOS>MOLECULE
tmp/1rr2A00.pdb
 118 110 0 0 0
SMALL
GASTEIGER

@<TRIPOS>ATOM
      1  N         91.0210   19.8080   -1.7170 N.3    20  ARG20      -0.1231
      2  CA        89.5640   19.6300   -1.7840 C.3    20  ARG20       0.1694
      3  C         89.0600   19.7000   -3.2320 C.2    20  ARG20       0.2592
      4  O         88.8650   18.6610   -3.8630 O.2    20  ARG20      -0.2718
      5  CB        88.8710   20.6710   -0.8890 C.3    20  ARG20       0.0321
      6  CG        87.3890   20.4290   -0.5940 C.3    20  ARG20       0.0489
      7  CD        86.4900   20.5910   -1.8230 C.3    20  ARG20       0.2205
      8  NE        86.3280   21.9090   -2.4370 N.pl3  20  ARG20      -0.0865
      9  CZ        85.3280   22.2590   -3.2470 C.cat  20  ARG20       0.5346
     10  NH1       84.3770   21.3880   -3.5620 N.pl3  20  ARG20       0.1354
     11  NH2       85.2710   23.4940   -3.7310 N.pl3  20  ARG20       0.1354
     12  N         88.8840   20.9000   -3.7830 N.am   21  ASP21      -0.1974
     13  CA        88.3160   21.0270   -5.1330 C.3    21  ASP21       0.1709
     14  C         89.1650   20.3400   -6.2350 C.2    21  ASP21       0.2293
     15  O         88.6030   19.7900   -7.1880 O.2    21  ASP21      -0.2864
     16  CB        88.1020   22.4990   -5.5050 C.3    21  ASP21       0.1436
     17  CG        86.9090   22.6920   -6.4550 C.2    21  ASP21       0.3671
     18  OD1       86.7330   23.8060   -6.9860 O.co2  21  ASP21      -0.2456
     19  OD2       86.1450   21.7180   -6.6520 O.co2  21  ASP21      -0.2456
     20  N         88.3050   16.7490   -6.1590 N.3    24  GLN24      -0.1245
     21  CA        86.8610   16.5750   -6.3740 C.3    24  GLN24       0.1566
     22  C         86.6000   16.6840   -7.8740 C.2    24  GLN24       0.2260
     23  O         85.8590   15.8950   -8.4580 O.2    24  GLN24      -0.2867
     24  CB        86.0470   17.6740   -5.6790 C.3    24  GLN24       0.0367
     25  CG        84.5440   17.5850   -5.9560 C.3    24  GLN24       0.0905
     26  CD        83.7090   18.5210   -5.0960 C.2    24  GLN24       0.2608
     27  OE1       83.9810   18.7020   -3.9080 O.2    24  GLN24      -0.2717
     28  NE2       82.6760   19.1140   -5.6930 N.am   24  GLN24      -0.0878
     29  N         82.2390   20.8610    0.3310 N.3    56  GLY56      -0.1210
     30  CA        82.0260   20.4100   -1.0310 C.3    56  GLY56       0.1956
     31  C         81.5200   18.9800   -0.9400 C.2    56  GLY56       0.2611
     32  O         80.7480   18.6530   -0.0360 O.2    56  GLY56      -0.2717
     33  N         81.9790   18.1120   -1.8330 N.am   57  ALA57      -0.1979
     34  CA        81.5170   16.7160   -1.8380 C.3    57  ALA57       0.1597
     35  C         82.4370   15.8120   -1.0140 C.2    57  ALA57       0.2287
     36  O         82.2490   14.5930   -1.0230 O.2    57  ALA57      -0.2864
     37  CB        81.4690   16.2020   -3.2580 C.3    57  ALA57       0.0319
     38  N         83.8950   24.8090    1.5100 N.3    89  LEU89      -0.1245
     39  CA        82.7770   25.2290    0.6540 C.3    89  LEU89       0.1561
     40  C         81.5240   24.7140    1.3250 C.2    89  LEU89       0.2260
     41  O         81.4300   23.5210    1.6110 O.2    89  LEU89      -0.2867
     42  CB        82.9070   24.6230   -0.7460 C.3    89  LEU89       0.0270
     43  CG        81.7880   25.0040   -1.7120 C.3    89  LEU89       0.0019
     44  CD1       81.8380   26.5150   -1.9230 C.3    89  LEU89       0.0001
     45  CD2       81.9410   24.2710   -3.0300 C.3    89  LEU89       0.0001
     46  N         77.2100   24.8580    1.1230 N.3    91  ARG91      -0.1245
     47  CA        76.0820   25.2650    0.2710 C.3    91  ARG91       0.1563
     48  C         74.9160   25.8400    1.0800 C.2    91  ARG91       0.2260
     49  O         73.8160   25.2870    1.0930 O.2    91  ARG91      -0.2867
     50  CB        75.6100   24.0920   -0.6000 C.3    91  ARG91       0.0307
     51  CG        74.6020   24.5240   -1.6700 C.3    91  ARG91       0.0489
     52  CD        74.3920   23.4300   -2.7180 C.3    91  ARG91       0.2205
     53  NE        73.8430   22.1330   -2.3300 N.pl3  91  ARG91      -0.0865
     54  CZ        72.5530   21.8220   -2.4060 C.cat  91  ARG91       0.5346
     55  NH1       71.6880   22.7190   -2.8610 N.pl3  91  ARG91       0.1354
     56  NH2       72.1270   20.6210   -2.0230 N.pl3  91  ARG91       0.1354
     57  N         77.5860   29.5300   -0.2040 N.3   124  PHE124     -0.1241
     58  CA        76.9900   29.8300   -1.5130 C.3   124  PHE124      0.1605
     59  C         75.6340   29.1640   -1.6470 C.2   124  PHE124      0.2264
     60  O         75.2610   28.2790   -0.8670 O.2   124  PHE124     -0.2867
     61  CB        77.9240   29.3540   -2.6480 C.3   124  PHE124      0.0534
     62  CG        77.7250   27.9060   -3.0660 C.ar  124  PHE124     -0.0203
     63  CD1       76.9200   27.5860   -4.1570 C.ar  124  PHE124     -0.0042
     64  CD2       78.3650   26.8700   -2.3900 C.ar  124  PHE124     -0.0042
     65  CE1       76.7540   26.2540   -4.5750 C.ar  124  PHE124     -0.0003
     66  CE2       78.2090   25.5290   -2.7910 C.ar  124  PHE124     -0.0003
     67  CZ        77.4040   25.2210   -3.8860 C.ar  124  PHE124     -0.0000
     68  N         82.7280   32.7190   -8.0180 N.3   182  LYS182     -0.1245
     69  CA        82.7580   31.1240   -7.8830 C.3   182  LYS182      0.1561
     70  C         82.1670   30.9860   -9.4760 C.2   182  LYS182      0.2260
     71  O         81.1650   31.1930   -9.8320 O.2   182  LYS182     -0.2867
     72  CB        82.0520   30.6230   -7.0030 C.3   182  LYS182      0.0271
     73  CG        82.2100   28.8950   -7.4350 C.3   182  LYS182      0.0035
     74  CD        81.4520   28.3010   -5.8920 C.3   182  LYS182      0.0206
     75  CE        80.1610   28.3990   -6.0220 C.3   182  LYS182      0.1093
     76  NZ        79.2510   27.7050   -7.1610 N.3   182  LYS182     -0.1314
     77  N         82.2890   27.7640  -11.5280 N.3   184  MET184     -0.1245
     78  CA        82.5950   26.3270  -11.5740 C.3   184  MET184      0.1570
     79  C         82.7310   25.8460  -13.0080 C.2   184  MET184      0.2261
     80  O         83.4490   24.8410  -13.3000 O.2   184  MET184     -0.2867
     81  CB        81.5160   25.5270  -10.8390 C.3   184  MET184      0.0387
     82  CG        81.9240   24.0620  -10.6760 C.3   184  MET184      0.0595
     83  SD        80.6190   22.9010  -11.0280 S.3   184  MET184     -0.1393
     84  CE        80.5030   23.1680  -12.8670 C.3   184  MET184      0.0692
     85  N         87.4640   32.3740   -7.9110 N.3   213  HIS213     -0.1241
     86  CA        87.5690   30.9120   -8.0440 C.3   213  HIS213      0.1621
     87  C         87.1380   30.5020   -9.4540 C.2   213  HIS213      0.2264
     88  O         85.9430   30.4440   -9.7360 O.2   213  HIS213     -0.2867
     89  CB        86.6340   30.2280   -7.0230 C.3   213  HIS213      0.0745
     90  CG        86.6300   28.7230   -7.0860 C.ar  213  HIS213      0.0817
     91  ND1       87.5650   27.9480   -6.4380 N.ar  213  HIS213     -0.2268
     92  CD2       85.7990   27.8540   -7.7160 C.ar  213  HIS213      0.1154
     93  CE1       87.3190   26.6710   -6.6690 C.ar  213  HIS213      0.1986
     94  NE2       86.2530   26.5850   -7.4420 N.ar  213  HIS213     -0.2212
     95  N         87.4950   27.5690  -12.6430 N.3   215  HIS215     -0.1241
     96  CA        88.0000   26.2620  -13.0850 C.3   215  HIS215      0.1621
     97  C         88.6740   26.5120  -14.4350 C.2   215  HIS215      0.2264
     98  O         88.5690   27.6290  -14.9550 O.2   215  HIS215     -0.2867
     99  CB        86.8650   25.2420  -13.1920 C.3   215  HIS215      0.0745
    100  CG        86.4220   24.7150  -11.8610 C.ar  215  HIS215      0.0817
    101  ND1       86.3990   23.3700  -11.5620 N.ar  215  HIS215     -0.2268
    102  CD2       86.0050   25.3580  -10.7440 C.ar  215  HIS215      0.1154
    103  CE1       85.9860   23.2090  -10.3170 C.ar  215  HIS215      0.1986
    104  NE2       85.7420   24.3990   -9.8000 N.ar  215  HIS215     -0.2212
    105  N         74.6600   24.8010  -11.9990 N.3   346  VAL346     -0.1231
    106  CA        75.5630   24.0720  -11.0970 C.3   346  VAL346      0.1692
    107  C         74.6950   23.1200  -10.2840 C.2   346  VAL346      0.2592
    108  O         73.4670   23.2700  -10.2490 O.2   346  VAL346     -0.2718
    109  CB        76.2910   25.0080  -10.1160 C.3   346  VAL346      0.0266
    110  CG1       77.1050   26.0180  -10.8750 C.3   346  VAL346      0.0020
    111  CG2       75.2790   25.7000   -9.2010 C.3   346  VAL346      0.0020
    112  N         75.3130   22.1490   -9.6310 N.am  347  THR347     -0.1953
    113  CA        74.5510   21.1880   -8.8210 C.3   347  THR347      0.1897
    114  C         73.7830   21.9320   -7.7340 C.2   347  THR347      0.2313
    115  O         74.3310   22.8130   -7.0780 O.2   347  THR347     -0.2863
    116  CB        75.4940   20.1860   -8.1660 C.3   347  THR347      0.1794
    117  OG1       76.2700   19.5420   -9.1860 O.3   347  THR347     -0.2208
    118  CG2       74.7010   19.1530   -7.3690 C.3   347  THR347      0.0378
@<TRIPOS>BOND
     1    98    97    2
     2    97    96    1
     3    80    79    2
     4    99    96    1
     5    99   100    1
     6    96    95    1
     7    79    78    1
     8    84    83    1
     9   105   106    1
    10   100   101   ar
    11   100   102   ar
    12    78    77    1
    13    78    81    1
    14   101   103   ar
    15   106   107    1
    16   106   109    1
    17    83    82    1
    18   110   109    1
    19    81    82    1
    20   102   104   ar
    21   103   104   ar
    22   107   108    2
    23   107   112   am
    24   109   111    1
    25    71    70    2
    26    88    87    2
    27   112   113    1
    28    70    69    1
    29    87    86    1
    30   117   116    1
    31   113   116    1
    32   113   114    1
    33    23    22    2
    34   116   118    1
    35    86    85    1
    36    86    89    1
    37    68    69    1
    38    69    72    1
    39    22    21    1
    40   114   115    2
    41    92    94   ar
    42    92    90   ar
    43    94    93   ar
    44    73    72    1
    45    73    74    1
    46    15    14    2
    47    76    75    1
    48    90    89    1
    49    90    91   ar
    50    18    17   ar
    51    93    91   ar
    52    19    17   ar
    53    17    16    1
    54    21    20    1
    55    21    24    1
    56    14    13    1
    57    75    74    1
    58    25    24    1
    59    25    26    1
    60    28    26   am
    61    16    13    1
    62    13    12    1
    63    26    27    2
    64    65    63   ar
    65    65    67   ar
    66    63    62   ar
    67    67    66   ar
    68     4     3    2
    69    12     3   am
    70    11     9    1
    71    10     9    1
    72    37    34    1
    73     9     8    2
    74     3     2    1
    75    62    61    1
    76    62    64   ar
    77    45    43    1
    78    55    54    1
    79    66    64   ar
    80    52    53    1
    81    52    51    1
    82    61    58    1
    83     8     7    1
    84    54    53    2
    85    54    56    1
    86    44    43    1
    87    34    33    1
    88    34    35    1
    89    33    31   am
    90     7     6    1
    91     2     1    1
    92     2     5    1
    93    43    42    1
    94    51    50    1
    95    59    58    1
    96    59    60    2
    97    58    57    1
    98    30    31    1
    99    30    29    1
   100    36    35    2
   101    31    32    2
   102     5     6    1
   103    42    39    1
   104    50    47    1
   105    47    48    1
   106    47    46    1
   107    39    40    1
   108    39    38    1
   109    48    49    2
   110    40    41    2
