@<TRIPOS>MOLECULE
tmp/1rr8C00.pdb
 125 118 0 0 0
SMALL
GASTEIGER

@<TRIPOS>ATOM
      1  N         29.1430  -11.8090   29.3090 N.3   152  ASN152     -0.1240
      2  CA        27.9890  -12.5540   29.8030 C.3   152  ASN152      0.1653
      3  C         28.0330  -13.9800   29.3030 C.2   152  ASN152      0.2266
      4  O         27.3230  -14.3340   28.3600 O.2   152  ASN152     -0.2867
      5  CB        26.6790  -11.8710   29.3850 C.3   152  ASN152      0.1155
      6  CG        26.4090  -10.5960   30.1550 C.2   152  ASN152      0.2627
      7  OD1       26.7630   -9.5000   29.7130 O.2   152  ASN152     -0.2716
      8  ND2       25.7780  -10.7310   31.3210 N.am  152  ASN152     -0.0877
      9  N         26.9940  -16.6720   30.8850 N.3   154  LYS154     -0.1245
     10  CA        25.7570  -17.4040   31.2140 C.3   154  LYS154      0.1561
     11  C         24.6300  -16.9570   30.2770 C.2   154  LYS154      0.2260
     12  O         24.1590  -15.8210   30.3670 O.2   154  LYS154     -0.2867
     13  CB        25.2990  -17.1740   32.6650 C.3   154  LYS154      0.0271
     14  CG        26.1940  -17.7420   33.7570 C.3   154  LYS154      0.0035
     15  CD        25.5750  -17.4650   35.1240 C.3   154  LYS154      0.0206
     16  CE        26.5590  -17.7240   36.2620 C.3   154  LYS154      0.1093
     17  NZ        25.9800  -17.4450   37.6160 N.3   154  LYS154     -0.1314
     18  N         21.0220  -16.5120   28.6910 N.3   156  GLU156     -0.1245
     19  CA        19.7080  -16.1920   29.2420 C.3   156  GLU156      0.1567
     20  C         18.7210  -17.3480   29.1920 C.2   156  GLU156      0.2260
     21  O         18.7030  -18.0920   28.2110 O.2   156  GLU156     -0.2867
     22  CB        19.1180  -15.0180   28.4550 C.3   156  GLU156      0.0388
     23  CG        18.7830  -13.8030   29.2890 C.3   156  GLU156      0.1160
     24  CD        19.9870  -13.2560   30.0340 C.2   156  GLU156      0.3649
     25  OE1       20.8820  -12.6840   29.3690 O.co2 156  GLU156     -0.2457
     26  OE2       20.0280  -13.4120   31.2760 O.co2 156  GLU156     -0.2457
     27  N         10.4390   -3.1860   25.9450 N.3   164  ARG164     -0.1245
     28  CA        10.2530   -1.8810   26.5550 C.3   164  ARG164      0.1563
     29  C          9.1920   -1.0950   25.7980 C.2   164  ARG164      0.2260
     30  O          9.2440   -0.9980   24.5740 O.2   164  ARG164     -0.2867
     31  CB        11.5960   -1.1330   26.6290 C.3   164  ARG164      0.0307
     32  CG        12.5410   -1.7420   27.6790 C.3   164  ARG164      0.0489
     33  CD        13.7970   -0.9520   27.9270 C.3   164  ARG164      0.2205
     34  NE        14.8440   -1.2460   26.9510 N.pl3 164  ARG164     -0.0865
     35  CZ        16.0100   -1.8250   27.2370 C.cat 164  ARG164      0.5346
     36  NH1       16.3070   -2.1940   28.4800 N.pl3 164  ARG164      0.1354
     37  NH2       16.8970   -2.0100   26.2700 N.pl3 164  ARG164      0.1354
     38  N         24.5200  -16.8920   18.4770 N.3   216  TRP216     -0.1241
     39  CA        23.3110  -17.6730   18.1850 C.3   216  TRP216      0.1605
     40  C         22.2110  -16.7330   17.7020 C.2   216  TRP216      0.2264
     41  O         22.3450  -15.5200   17.7990 O.2   216  TRP216     -0.2867
     42  CB        22.8320  -18.4680   19.4250 C.3   216  TRP216      0.0550
     43  CG        22.3950  -17.6370   20.6060 C.ar  216  TRP216      0.0003
     44  CD1       21.1220  -17.1970   20.8800 C.ar  216  TRP216      0.0946
     45  CD2       23.2290  -17.1110   21.6450 C.ar  216  TRP216      0.0152
     46  NE1       21.1160  -16.4230   22.0140 N.ar  216  TRP216     -0.2442
     47  CE2       22.3910  -16.3510   22.5100 C.ar  216  TRP216      0.0810
     48  CE3       24.6060  -17.1990   21.9330 C.ar  216  TRP216      0.0012
     49  CZ2       22.8880  -15.6790   23.6510 C.ar  216  TRP216      0.0191
     50  CZ3       25.1070  -16.5280   23.0690 C.ar  216  TRP216      0.0001
     51  CH2       24.2420  -15.7760   23.9140 C.ar  216  TRP216      0.0015
     52  N         22.6170  -12.7220   18.7230 N.3   225  LYS225     -0.1231
     53  CA        23.0660  -12.3000   20.0590 C.3   225  LYS225      0.1693
     54  C         24.4830  -12.8310   20.2150 C.2   225  LYS225      0.2592
     55  O         24.8140  -13.8910   19.6700 O.2   225  LYS225     -0.2718
     56  CB        22.1650  -12.8330   21.1860 C.3   225  LYS225      0.0285
     57  CG        20.7860  -12.1740   21.3060 C.3   225  LYS225      0.0035
     58  CD        20.8620  -10.6630   21.5270 C.3   225  LYS225      0.0206
     59  CE        19.4910   -9.9910   21.3960 C.3   225  LYS225      0.1093
     60  NZ        19.6340   -8.5120   21.1750 N.3   225  LYS225     -0.1314
     61  N         25.3230  -12.0770   20.9300 N.am  226  TYR226     -0.1976
     62  CA        26.7290  -12.4280   21.0960 C.3   226  TYR226      0.1639
     63  C         27.2270  -12.4950   22.5260 C.2   226  TYR226      0.2290
     64  O         26.5680  -12.0120   23.4520 O.2   226  TYR226     -0.2864
     65  CB        27.6010  -11.3950   20.3680 C.3   226  TYR226      0.0560
     66  CG        27.2410  -11.1010   18.9220 C.ar  226  TYR226     -0.0198
     67  CD1       26.3570  -10.0570   18.5890 C.ar  226  TYR226     -0.0009
     68  CD2       27.8190  -11.8370   17.8770 C.ar  226  TYR226     -0.0009
     69  CE1       26.0660   -9.7550   17.2350 C.ar  226  TYR226      0.0417
     70  CE2       27.5420  -11.5470   16.5250 C.ar  226  TYR226      0.0417
     71  CZ        26.6670  -10.5090   16.2140 C.ar  226  TYR226      0.1957
     72  OH        26.3910  -10.2330   14.8970 O.3   226  TYR226     -0.2866
     73  N         19.3460   11.4210   18.9850 N.3   288  ARG288     -0.1245
     74  CA        19.9200   10.2320   18.3820 C.3   288  ARG288      0.1563
     75  C         19.5910   10.2350   16.8970 C.2   288  ARG288      0.2260
     76  O         18.5360   10.7170   16.5050 O.2   288  ARG288     -0.2867
     77  CB        19.3500    8.9680   19.0390 C.3   288  ARG288      0.0307
     78  CG        19.6350    8.8380   20.5290 C.3   288  ARG288      0.0489
     79  CD        19.1780    7.4960   21.0710 C.3   288  ARG288      0.2205
     80  NE        19.3650    7.3750   22.5190 N.pl3 288  ARG288     -0.0865
     81  CZ        18.5130    7.8320   23.4380 C.cat 288  ARG288      0.5346
     82  NH1       17.3920    8.4480   23.0690 N.pl3 288  ARG288      0.1354
     83  NH2       18.7760    7.6840   24.7310 N.pl3 288  ARG288      0.1354
     84  N         14.4420    6.3740   22.3620 N.3   332  LYS332     -0.1231
     85  CA        14.8650    4.9970   22.6520 C.3   332  LYS332      0.1693
     86  C         14.3210    4.5420   24.0160 C.2   332  LYS332      0.2592
     87  O         14.2190    5.3480   24.9470 O.2   332  LYS332     -0.2718
     88  CB        16.3930    4.9080   22.6380 C.3   332  LYS332      0.0285
     89  CG        16.9650    3.4860   22.6570 C.3   332  LYS332      0.0035
     90  CD        18.4530    3.5030   22.9310 C.3   332  LYS332      0.0206
     91  CE        18.9900    2.1020   23.1460 C.3   332  LYS332      0.1093
     92  NZ        20.4240    2.1810   23.5100 N.3   332  LYS332     -0.1314
     93  N         13.9430    3.2610   24.0990 N.am  333  ASP333     -0.1974
     94  CA        13.3850    2.6110   25.3010 C.3   333  ASP333      0.1709
     95  C         12.0270    3.2020   25.7080 C.2   333  ASP333      0.2293
     96  O         11.6220    3.1160   26.8750 O.2   333  ASP333     -0.2864
     97  CB        14.3430    2.6790   26.5070 C.3   333  ASP333      0.1436
     98  CG        15.7370    2.1580   26.2030 C.2   333  ASP333      0.3671
     99  OD1       15.8720    1.0370   25.6580 O.co2 333  ASP333     -0.2456
    100  OD2       16.7050    2.8870   26.5280 O.co2 333  ASP333     -0.2456
    101  N         18.2720   10.8990   30.0300 N.3   432  HIS432     -0.1241
    102  CA        18.3670    9.6310   30.7280 C.3   432  HIS432      0.1621
    103  C         17.4820    9.6760   31.9700 C.2   432  HIS432      0.2264
    104  O         17.8840   10.1670   33.0250 O.2   432  HIS432     -0.2867
    105  CB        19.8150    9.3270   31.0920 C.3   432  HIS432      0.0745
    106  CG        20.7000    9.0860   29.9080 C.ar  432  HIS432      0.0817
    107  ND1       22.0460    9.3800   29.9230 N.ar  432  HIS432     -0.2268
    108  CD2       20.4430    8.5620   28.6840 C.ar  432  HIS432      0.1154
    109  CE1       22.5790    9.0440   28.7630 C.ar  432  HIS432      0.1986
    110  NE2       21.6290    8.5470   27.9920 N.ar  432  HIS432     -0.2212
    111  N         23.8280    5.5120   32.7360 N.3   447  THR447     -0.1218
    112  CA        24.0960    5.4470   31.2940 C.3   447  THR447      0.1862
    113  C         25.2150    6.3790   30.8080 C.2   447  THR447      0.2287
    114  O         26.1340    5.9040   30.1320 O.2   447  THR447     -0.2866
    115  CB        22.7950    5.6140   30.4460 C.3   447  THR447      0.1770
    116  OG1       21.8380    4.6200   30.8380 O.3   447  THR447     -0.2211
    117  CG2       23.0770    5.4400   28.9440 C.3   447  THR447      0.0375
    118  N         28.8600    5.3110   29.4120 N.3   451  ASN451     -0.1240
    119  CA        28.8780    5.2630   27.9400 C.3   451  ASN451      0.1653
    120  C         29.1350    6.5220   27.0990 C.2   451  ASN451      0.2266
    121  O         29.5850    6.4060   25.9570 O.2   451  ASN451     -0.2867
    122  CB        27.5590    4.6650   27.4070 C.3   451  ASN451      0.1155
    123  CG        27.2700    3.2740   27.9360 C.2   451  ASN451      0.2627
    124  OD1       27.6870    2.2810   27.3550 O.2   451  ASN451     -0.2716
    125  ND2       26.5230    3.1990   29.0280 N.am  451  ASN451     -0.0877
@<TRIPOS>BOND
     1    72    71    1
     2    71    70   ar
     3    71    69   ar
     4    76    75    2
     5    70    68   ar
     6    75    74    1
     7    69    67   ar
     8    40    41    2
     9    40    39    1
    10    68    66   ar
    11    39    38    1
    12    39    42    1
    13    74    73    1
    14    74    77    1
    15    67    66   ar
    16    52    53    1
    17    66    65    1
    18    77    78    1
    19    42    43    1
    20    55    54    2
    21    53    54    1
    22    53    56    1
    23    54    61   am
    24    65    62    1
    25    78    79    1
    26    43    44   ar
    27    43    45   ar
    28    44    46   ar
    29    61    62    1
    30    79    80    1
    31    62    63    1
    32    60    59    1
    33    56    57    1
    34    57    58    1
    35    59    58    1
    36    45    48   ar
    37    45    47   ar
    38    48    50   ar
    39    46    47   ar
    40    84    85    1
    41    47    49   ar
    42    80    81    2
    43    63    64    2
    44    88    85    1
    45    88    89    1
    46    85    86    1
    47    89    90    1
    48    90    91    1
    49    82    81    1
    50    50    51   ar
    51    91    92    1
    52    81    83    1
    53    49    51   ar
    54    86    93   am
    55    86    87    2
    56    93    94    1
    57    30    29    2
    58    94    95    1
    59    94    97    1
    60    99    98   ar
    61    95    96    2
    62    29    28    1
    63    27    28    1
    64   121   120    2
    65    98    97    1
    66    98   100   ar
    67    37    35    1
    68    28    31    1
    69    31    32    1
    70    34    35    2
    71    34    33    1
    72   120   119    1
    73    35    36    1
    74   124   123    2
    75   122   123    1
    76   122   119    1
    77    32    33    1
    78   123   125   am
    79   119   118    1
    80   110   108   ar
    81   110   109   ar
    82    21    20    2
    83     4     3    2
    84    22    19    1
    85    22    23    1
    86   108   106   ar
    87    18    19    1
    88   109   107   ar
    89   117   115    1
    90    20    19    1
    91    23    24    1
    92     3     2    1
    93     1     2    1
    94    25    24   ar
    95     5     2    1
    96     5     6    1
    97     7     6    2
    98   106   107   ar
    99   106   105    1
   100   101   102    1
   101    24    26   ar
   102   114   113    2
   103     6     8   am
   104    11    12    2
   105    11    10    1
   106   115   116    1
   107   115   112    1
   108   102   105    1
   109   102   103    1
   110   113   112    1
   111     9    10    1
   112    10    13    1
   113   112   111    1
   114   103   104    2
   115    13    14    1
   116    14    15    1
   117    15    16    1
   118    16    17    1
