@<TRIPOS>MOLECULE
tmp/1rrcB00.pdb
 187 176 0 0 0
SMALL
GASTEIGER

@<TRIPOS>ATOM
      1  N         11.7440   86.3110  108.2240 N.3    10  PRO10      -0.2116
      2  CA        11.0410   86.7010  109.4520 C.3    10  PRO10       0.1372
      3  C          9.7160   85.9470  109.4760 C.2    10  PRO10       0.2244
      4  O          9.1090   85.7090  108.4320 O.2    10  PRO10      -0.2868
      5  CB        10.8820   88.2150  109.3140 C.3    10  PRO10       0.0268
      6  CG        11.1710   88.5020  107.8660 C.3    10  PRO10       0.0207
      7  CD        12.1660   87.4840  107.4440 C.3    10  PRO10       0.0892
      8  N         11.9750   80.7780  113.8190 N.3    14  LYS14      -0.1245
      9  CA        13.3020   80.9440  114.4150 C.3    14  LYS14       0.1561
     10  C         13.3540   81.0440  115.9420 C.2    14  LYS14       0.2260
     11  O         13.9380   80.1910  116.6220 O.2    14  LYS14      -0.2867
     12  CB        13.9720   82.2080  113.8670 C.3    14  LYS14       0.0271
     13  CG        14.5810   82.1080  112.4930 C.3    14  LYS14       0.0035
     14  CD        15.2460   83.4380  112.1480 C.3    14  LYS14       0.0206
     15  CE        14.2150   84.5460  112.0410 C.3    14  LYS14       0.1093
     16  NZ        14.7130   85.8720  112.5220 N.3    14  LYS14      -0.1314
     17  N         19.8130   90.2780  116.7800 N.3    33  ARG33      -0.1231
     18  CA        19.9510   91.6870  116.4000 C.3    33  ARG33       0.1694
     19  C         18.6750   92.5170  116.5680 C.2    33  ARG33       0.2592
     20  O         18.7570   93.7190  116.8330 O.2    33  ARG33      -0.2718
     21  CB        20.4500   91.8180  114.9570 C.3    33  ARG33       0.0321
     22  CG        21.9170   91.4670  114.7840 C.3    33  ARG33       0.0489
     23  CD        22.1980   90.9210  113.3950 C.3    33  ARG33       0.2205
     24  NE        22.7090   91.9150  112.4640 N.pl3  33  ARG33      -0.0865
     25  CZ        23.1100   91.6310  111.2300 C.cat  33  ARG33       0.5346
     26  NH1       23.5680   92.5890  110.4390 N.pl3  33  ARG33       0.1354
     27  NH2       23.0430   90.3880  110.7810 N.pl3  33  ARG33       0.1354
     28  N         17.5050   91.9010  116.4060 N.am   34  ASP34      -0.1974
     29  CA        16.2550   92.6430  116.5860 C.3    34  ASP34       0.1709
     30  C         16.2230   93.1140  118.0370 C.2    34  ASP34       0.2293
     31  O         15.8530   94.2450  118.3230 O.2    34  ASP34      -0.2864
     32  CB        15.0320   91.7590  116.2960 C.3    34  ASP34       0.1436
     33  CG        14.7180   91.6590  114.8110 C.2    34  ASP34       0.3671
     34  OD1       13.9530   90.7520  114.4140 O.co2  34  ASP34      -0.2456
     35  OD2       15.2260   92.4890  114.0320 O.co2  34  ASP34      -0.2456
     36  N         18.6620   95.8470  118.6410 N.3    37  ARG37      -0.1245
     37  CA        18.1950   97.0000  117.8880 C.3    37  ARG37       0.1563
     38  C         17.1630   97.7800  118.7180 C.2    37  ARG37       0.2260
     39  O         17.2030   99.0130  118.7930 O.2    37  ARG37      -0.2867
     40  CB        17.5790   96.5180  116.5720 C.3    37  ARG37       0.0307
     41  CG        18.0790   97.2320  115.3350 C.3    37  ARG37       0.0489
     42  CD        18.8120   96.3450  114.3190 C.3    37  ARG37       0.2205
     43  NE        18.0560   95.1440  113.9810 N.pl3  37  ARG37      -0.0865
     44  CZ        18.3600   94.3030  112.9950 C.cat  37  ARG37       0.5346
     45  NH1       17.6030   93.2380  112.7940 N.pl3  37  ARG37       0.1354
     46  NH2       19.3930   94.5280  112.1960 N.pl3  37  ARG37       0.1354
     47  N         11.6270  101.2510  114.1980 N.3    48  TYR48      -0.1241
     48  CA        13.0680  101.4550  114.2140 C.3    48  TYR48       0.1605
     49  C         13.5740  102.1210  112.9260 C.2    48  TYR48       0.2264
     50  O         13.1760  101.7560  111.8150 O.2    48  TYR48      -0.2867
     51  CB        13.7460  100.1010  114.4550 C.3    48  TYR48       0.0534
     52  CG        15.2420  100.0760  114.2780 C.ar   48  TYR48      -0.0201
     53  CD1       15.8090   99.7310  113.0540 C.ar   48  TYR48      -0.0009
     54  CD2       16.0960  100.3880  115.3350 C.ar   48  TYR48      -0.0009
     55  CE1       17.1900   99.6920  112.8890 C.ar   48  TYR48       0.0417
     56  CE2       17.4760  100.3580  115.1770 C.ar   48  TYR48       0.0417
     57  CZ        18.0100  100.0070  113.9550 C.ar   48  TYR48       0.1957
     58  OH        19.3710   99.9480  113.8020 O.3    48  TYR48      -0.2866
     59  N         16.4600  102.6200  110.4770 N.3    50  TYR50      -0.1241
     60  CA        17.7160  102.0220  110.0440 C.3    50  TYR50       0.1605
     61  C         18.8720  102.9990  109.8840 C.2    50  TYR50       0.2264
     62  O         18.6930  104.1040  109.3730 O.2    50  TYR50      -0.2867
     63  CB        17.5220  101.2780  108.7270 C.3    50  TYR50       0.0534
     64  CG        18.7730  100.5750  108.2720 C.ar   50  TYR50      -0.0201
     65  CD1       19.6070  101.1360  107.2990 C.ar   50  TYR50      -0.0009
     66  CD2       19.1350   99.3500  108.8270 C.ar   50  TYR50      -0.0009
     67  CE1       20.7760  100.4820  106.8900 C.ar   50  TYR50       0.0417
     68  CE2       20.2880   98.6930  108.4290 C.ar   50  TYR50       0.0417
     69  CZ        21.1040   99.2580  107.4640 C.ar   50  TYR50       0.1957
     70  OH        22.2350   98.5760  107.0830 O.3    50  TYR50      -0.2866
     71  N         23.5360  102.9170  109.4450 N.3    52  LYS52      -0.1245
     72  CA        24.7970  102.1850  109.3940 C.3    52  LYS52       0.1561
     73  C         25.4020  102.1520  110.7910 C.2    52  LYS52       0.2260
     74  O         25.8510  101.1100  111.2690 O.2    52  LYS52      -0.2867
     75  CB        25.7850  102.8660  108.4390 C.3    52  LYS52       0.0271
     76  CG        26.1960  104.2770  108.8700 C.3    52  LYS52       0.0035
     77  CD        27.6210  104.6220  108.4330 C.3    52  LYS52       0.0206
     78  CE        28.6640  103.7580  109.1560 C.3    52  LYS52       0.1093
     79  NZ        28.7660  104.0590  110.6170 N.3    52  LYS52      -0.1314
     80  N         23.7440   99.8070  113.0620 N.3    55  GLU55      -0.1231
     81  CA        24.0260   98.4270  112.6380 C.3    55  GLU55       0.1699
     82  C         25.4050   97.9770  113.0840 C.2    55  GLU55       0.2592
     83  O         25.5810   96.8480  113.5500 O.2    55  GLU55      -0.2718
     84  CB        23.9440   98.2760  111.1150 C.3    55  GLU55       0.0402
     85  CG        22.5380   98.1590  110.5790 C.3    55  GLU55       0.1161
     86  CD        21.7410   97.0730  111.2790 C.2    55  GLU55       0.3649
     87  OE1       22.1590   95.8970  111.2310 O.co2  55  GLU55      -0.2457
     88  OE2       20.7020   97.4040  111.8810 O.co2  55  GLU55      -0.2457
     89  N         26.3820   98.8650  112.9170 N.am   56  GLY56      -0.1957
     90  CA        27.7420   98.5620  113.3220 C.3    56  GLY56       0.1869
     91  C         27.7350   98.2260  114.7980 C.2    56  GLY56       0.2309
     92  O         28.3880   97.2730  115.2240 O.2    56  GLY56      -0.2863
     93  N         26.0970   94.8110  115.3900 N.3    59  THR59      -0.1218
     94  CA        27.0100   93.7930  114.8940 C.3    59  THR59       0.1862
     95  C         28.1120   93.6240  115.9390 C.2    59  THR59       0.2287
     96  O         28.5000   92.5050  116.2860 O.2    59  THR59      -0.2866
     97  CB        27.6580   94.2140  113.5460 C.3    59  THR59       0.1770
     98  OG1       26.6570   94.2490  112.5200 O.3    59  THR59      -0.2211
     99  CG2       28.7580   93.2240  113.1480 C.3    59  THR59       0.0375
    100  N         19.1210   85.2860  113.9500 N.3    82  ASP82      -0.1225
    101  CA        18.8050   86.3130  112.9590 C.3    82  ASP82       0.1805
    102  C         18.2960   85.5760  111.7100 C.2    82  ASP82       0.2598
    103  O         18.1890   84.3470  111.7050 O.2    82  ASP82      -0.2718
    104  CB        20.0560   87.1120  112.5900 C.3    82  ASP82       0.1424
    105  CG        20.5820   87.9520  113.7360 C.2    82  ASP82       0.3668
    106  OD1       21.7600   88.3560  113.6790 O.co2  82  ASP82      -0.2456
    107  OD2       19.8240   88.2210  114.6880 O.co2  82  ASP82      -0.2456
    108  N         17.9720   86.3200  110.6580 N.am   83  THR83      -0.1939
    109  CA        17.5140   85.6900  109.4290 C.3    83  THR83       0.2028
    110  C         18.6980   84.9140  108.8340 C.2    83  THR83       0.2642
    111  O         18.5360   83.8030  108.3220 O.2    83  THR83      -0.2714
    112  CB        16.9960   86.7500  108.4040 C.3    83  THR83       0.1808
    113  OG1       18.0140   87.7280  108.1630 O.3    83  THR83      -0.2208
    114  CG2       15.7470   87.4730  108.9490 C.3    83  THR83       0.0379
    115  N         19.8910   85.4980  108.9460 N.am   84  ASN84      -0.1971
    116  CA        21.1260   84.9190  108.4160 C.3    84  ASN84       0.1688
    117  C         20.9890   84.6030  106.9340 C.2    84  ASN84       0.2292
    118  O         21.6180   83.6720  106.4320 O.2    84  ASN84      -0.2864
    119  CB        21.5170   83.6360  109.1710 C.3    84  ASN84       0.1181
    120  CG        22.0200   83.9140  110.5760 C.2    84  ASN84       0.2629
    121  OD1       22.8980   84.7610  110.7770 O.2    84  ASN84      -0.2716
    122  ND2       21.4770   83.1910  111.5580 N.am   84  ASN84      -0.0877
    123  N         21.9510   86.5230  104.4070 N.3    86  ASN86      -0.1240
    124  CA        22.9790   87.1670  103.5870 C.3    86  ASN86       0.1653
    125  C         24.2560   86.3140  103.6070 C.2    86  ASN86       0.2266
    126  O         24.9210   86.1890  104.6400 O.2    86  ASN86      -0.2867
    127  CB        23.3000   88.5620  104.1170 C.3    86  ASN86       0.1155
    128  CG        24.3180   89.2930  103.2520 C.2    86  ASN86       0.2627
    129  OD1       25.3560   88.7400  102.8750 O.2    86  ASN86      -0.2716
    130  ND2       24.0280   90.5470  102.9410 N.am   86  ASN86      -0.0877
    131  N         27.3410   87.5910  105.3590 N.3    89  ARG89      -0.1245
    132  CA        27.1320   87.5490  106.7890 C.3    89  ARG89       0.1563
    133  C         27.4090   86.1510  107.3490 C.2    89  ARG89       0.2260
    134  O         27.9880   86.0020  108.4280 O.2    89  ARG89      -0.2867
    135  CB        25.6890   87.9550  107.0870 C.3    89  ARG89       0.0307
    136  CG        25.3500   88.0060  108.5550 C.3    89  ARG89       0.0489
    137  CD        26.1590   89.0660  109.2420 C.3    89  ARG89       0.2205
    138  NE        25.9130   89.0620  110.6730 N.pl3  89  ARG89      -0.0865
    139  CZ        26.6050   89.7830  111.5450 C.cat  89  ARG89       0.5346
    140  NH1       27.5910   90.5690  111.1250 N.pl3  89  ARG89       0.1354
    141  NH2       26.3150   89.7120  112.8370 N.pl3  89  ARG89       0.1354
    142  N          1.5560   89.7070  112.0990 N.3   123  ARG123     -0.1245
    143  CA         2.6790   89.9820  112.9890 C.3   123  ARG123      0.1563
    144  C          2.5710   91.3280  113.7030 C.2   123  ARG123      0.2260
    145  O          3.3130   91.6090  114.6520 O.2   123  ARG123     -0.2867
    146  CB         3.9770   89.9250  112.1860 C.3   123  ARG123      0.0307
    147  CG         4.7940   88.6830  112.4110 C.3   123  ARG123      0.0489
    148  CD         5.3160   88.6630  113.8310 C.3   123  ARG123      0.2205
    149  NE         6.5470   87.8900  113.9540 N.pl3 123  ARG123     -0.0865
    150  CZ         7.6680   88.1650  113.2930 C.cat 123  ARG123      0.5346
    151  NH1        8.7380   87.4120  113.4690 N.pl3 123  ARG123      0.1354
    152  NH2        7.7220   89.1870  112.4470 N.pl3 123  ARG123      0.1354
    153  N          5.7540   93.7300  114.7020 N.3   126  LYS126     -0.1231
    154  CA         6.9720   93.0720  114.2510 C.3   126  LYS126      0.1693
    155  C          6.8960   92.7910  112.7480 C.2   126  LYS126      0.2592
    156  O          7.8450   92.2770  112.1550 O.2   126  LYS126     -0.2718
    157  CB         7.1940   91.7510  114.9950 C.3   126  LYS126      0.0285
    158  CG         7.3940   91.8550  116.5110 C.3   126  LYS126      0.0035
    159  CD         7.9360   90.5370  117.0870 C.3   126  LYS126      0.0206
    160  CE         7.0770   89.3290  116.6850 C.3   126  LYS126      0.1093
    161  NZ         7.6970   87.9930  117.0010 N.3   126  LYS126     -0.1314
    162  N          5.7660   93.1200  112.1320 N.am  127  ALA127     -0.1966
    163  CA         5.6060   92.8860  110.7020 C.3   127  ALA127      0.1728
    164  C          6.7340   93.5580  109.9510 C.2   127  ALA127      0.2616
    165  O          7.3080   94.5400  110.4190 O.2   127  ALA127     -0.2715
    166  CB         4.2690   93.4230  110.2090 C.3   127  ALA127      0.0334
    167  N          7.0400   93.0150  108.7810 N.am  128  VAL128     -0.1964
    168  CA         8.1010   93.5280  107.9310 C.3   128  VAL128      0.1712
    169  C          7.4530   93.9480  106.6000 C.2   128  VAL128      0.2458
    170  O          6.4270   93.3920  106.2010 O.2   128  VAL128     -0.2730
    171  CB         9.1740   92.4050  107.7450 C.3   128  VAL128      0.0289
    172  CG1        9.2490   91.9450  106.3040 C.3   128  VAL128      0.0023
    173  CG2       10.5090   92.8740  108.2650 C.3   128  VAL128      0.0023
    174  N          8.0060   94.9700  105.9240 N.am  129  PRO129     -0.2727
    175  CA         7.3880   95.3670  104.6490 C.3   129  PRO129      0.1402
    176  C          7.3380   94.1880  103.6740 C.2   129  PRO129      0.2269
    177  O          8.1950   93.3090  103.7120 O.2   129  PRO129     -0.2865
    178  CB         8.2670   96.5330  104.1670 C.3   129  PRO129      0.0296
    179  CG         9.5130   96.4820  105.0540 C.3   129  PRO129      0.0237
    180  CD         9.0170   95.9480  106.3580 C.3   129  PRO129      0.0939
    181  N         10.6040   93.5960  101.4820 N.3   132  VAL132     -0.1245
    182  CA        11.8040   93.0820  102.1230 C.3   132  VAL132      0.1561
    183  C         11.5590   91.5980  102.3940 C.2   132  VAL132      0.2260
    184  O         12.4910   90.8070  102.4960 O.2   132  VAL132     -0.2867
    185  CB        12.1300   93.8180  103.4400 C.3   132  VAL132      0.0252
    186  CG1       12.0910   95.3230  103.2210 C.3   132  VAL132      0.0019
    187  CG2       11.1770   93.4070  104.5120 C.3   132  VAL132      0.0019
@<TRIPOS>BOND
     1   181   182    1
     2   182   183    1
     3   182   185    1
     4   183   184    2
     5   129   128    2
     6   130   128   am
     7   186   185    1
     8   128   127    1
     9   185   187    1
    10   124   125    1
    11   124   127    1
    12   124   123    1
    13   125   126    2
    14   176   177    2
    15   176   175    1
    16   178   175    1
    17   178   179    1
    18   175   174    1
    19   179   180    1
    20   131   132    1
    21   174   180    1
    22   174   169   am
    23   170   169    2
    24   172   171    1
    25   118   117    2
    26   169   168    1
    27   132   135    1
    28   132   133    1
    29    67    65   ar
    30    67    69   ar
    31   117   116    1
    32    70    69    1
    33   135   136    1
    34    65    64   ar
    35   133   134    2
    36     7     6    1
    37     7     1    1
    38    69    68   ar
    39   171   168    1
    40   171   173    1
    41     6     5    1
    42   168   167    1
    43   113   112    1
    44     1     2    1
    45    64    63    1
    46    64    66   ar
    47   111   110    2
    48   112   114    1
    49   112   109    1
    50   116   115    1
    51   116   119    1
    52    68    66   ar
    53     4     3    2
    54    77    76    1
    55    77    78    1
    56    75    76    1
    57    75    72    1
    58   136   137    1
    59    63    60    1
    60   167   164   am
    61   110   115   am
    62   110   109    1
    63    78    79    1
    64   119   120    1
    65   137   138    1
    66     5     2    1
    67    62    61    2
    68    72    71    1
    69    72    73    1
    70   109   108    1
    71     2     3    1
    72    61    60    1
    73   164   165    2
    74   164   163    1
    75    60    59    1
    76   166   163    1
    77    26    25    1
    78   120   121    2
    79   120   122   am
    80    85    84    1
    81    85    86    1
    82   108   102   am
    83   138   139    2
    84   163   162    1
    85    27    25    1
    86    73    74    2
    87    84    81    1
    88   140   139    1
    89    25    24    2
    90    87    86   ar
    91    86    88   ar
    92   139   141    1
    93   103   102    2
    94   102   101    1
    95    50    49    2
    96    15    14    1
    97    15    16    1
    98   142   143    1
    99   162   155   am
   100    14    13    1
   101   156   155    2
   102   146   147    1
   103   146   143    1
   104    46    44    1
   105   147   148    1
   106   152   150    1
   107    24    23    1
   108    13    12    1
   109    98    97    1
   110   104   101    1
   111   104   105    1
   112    81    80    1
   113    81    82    1
   114   155   154    1
   115    45    44    1
   116    55    53   ar
   117    55    57   ar
   118    89    82   am
   119    89    90    1
   120    49    48    1
   121   101   100    1
   122   143   144    1
   123    44    43    2
   124    53    52   ar
   125    82    83    2
   126    99    97    1
   127   150   151    1
   128   150   149    2
   129    90    91    1
   130    23    22    1
   131    97    94    1
   132   106   105   ar
   133   144   145    2
   134   105   107   ar
   135    58    57    1
   136     8     9    1
   137   148   149    1
   138    12     9    1
   139    57    56   ar
   140    43    42    1
   141    35    33   ar
   142    47    48    1
   143    48    51    1
   144   154   153    1
   145   154   157    1
   146    52    51    1
   147    52    54   ar
   148    42    41    1
   149    34    33   ar
   150     9    10    1
   151    22    21    1
   152    91    92    2
   153    33    32    1
   154    94    93    1
   155    94    95    1
   156    21    18    1
   157   157   158    1
   158    56    54   ar
   159    41    40    1
   160    95    96    2
   161    10    11    2
   162    32    29    1
   163    18    19    1
   164    18    17    1
   165    28    19   am
   166    28    29    1
   167   158   159    1
   168    19    20    2
   169    40    37    1
   170    29    30    1
   171   160   161    1
   172   160   159    1
   173    37    36    1
   174    37    38    1
   175    30    31    2
   176    38    39    2
