@<TRIPOS>MOLECULE
tmp/1rriA00.pdb
 82 82 0 0 0
SMALL
GASTEIGER

@<TRIPOS>ATOM
      1  N         35.8440   51.4620   65.0500 N.3    13  TYR13      -0.1227
      2  CA        37.1590   51.5870   64.4510 C.3    13  TYR13       0.1736
      3  C         37.8510   52.7030   65.2110 C.2    13  TYR13       0.2596
      4  O         37.3840   53.8390   65.2000 O.2    13  TYR13      -0.2718
      5  CB        37.0850   51.9320   62.9640 C.3    13  TYR13       0.0548
      6  CG        38.4240   51.7230   62.2910 C.ar   13  TYR13      -0.0200
      7  CD1       39.3810   52.7410   62.2620 C.ar   13  TYR13      -0.0009
      8  CD2       38.7630   50.4860   61.7410 C.ar   13  TYR13      -0.0009
      9  CE1       40.6370   52.5320   61.7050 C.ar   13  TYR13       0.0417
     10  CE2       40.0140   50.2660   61.1820 C.ar   13  TYR13       0.0417
     11  CZ        40.9440   51.2890   61.1690 C.ar   13  TYR13       0.1957
     12  OH        42.1810   51.0550   60.6270 O.3    13  TYR13      -0.2866
     13  N         38.9590   52.3690   65.8730 N.am   14  GLY14      -0.1942
     14  CA        39.6830   53.3520   66.6620 C.3    14  GLY14       0.2014
     15  C         41.1870   53.4420   66.4840 C.2    14  GLY14       0.2639
     16  O         41.7500   52.7030   65.6860 O.2    14  GLY14      -0.2714
     17  N         41.8260   54.3460   67.2310 N.am   15  TYR15      -0.1959
     18  CA        43.2690   54.5630   67.1510 C.3    15  TYR15       0.1771
     19  C         44.0200   54.4280   68.4640 C.2    15  TYR15       0.2619
     20  O         45.0740   55.0280   68.6370 O.2    15  TYR15      -0.2715
     21  CB        43.5530   55.9370   66.5570 C.3    15  TYR15       0.0574
     22  CG        42.9200   56.0550   65.2200 C.ar   15  TYR15      -0.0198
     23  CD1       41.5880   56.4050   65.0950 C.ar   15  TYR15      -0.0009
     24  CD2       43.6160   55.6960   64.0760 C.ar   15  TYR15      -0.0009
     25  CE1       40.9510   56.3790   63.8610 C.ar   15  TYR15       0.0417
     26  CE2       42.9910   55.6650   62.8330 C.ar   15  TYR15       0.0417
     27  CZ        41.6550   56.0080   62.7340 C.ar   15  TYR15       0.1957
     28  OH        40.9990   55.9620   61.5280 O.3    15  TYR15      -0.2866
     29  N         43.4820   53.6400   69.3850 N.am   16  HIS16      -0.1973
     30  CA        44.1400   53.4150   70.6620 C.3    16  HIS16       0.1656
     31  C         45.2110   52.3480   70.4560 C.2    16  HIS16       0.2291
     32  O         45.1190   51.5140   69.5450 O.2    16  HIS16      -0.2864
     33  CB        43.1050   52.9850   71.7110 C.3    16  HIS16       0.0771
     34  CG        41.7880   53.6700   71.5470 C.ar   16  HIS16       0.0820
     35  ND1       41.5730   54.9710   71.9470 N.ar   16  HIS16      -0.2267
     36  CD2       40.6460   53.2720   70.9380 C.ar   16  HIS16       0.1154
     37  CE1       40.3590   55.3440   71.5900 C.ar   16  HIS16       0.1986
     38  NE2       39.7760   54.3330   70.9760 N.ar   16  HIS16      -0.2212
     39  N         30.2510   54.1200   72.5730 N.3    62  LYS62      -0.1245
     40  CA        30.6850   54.6920   71.2960 C.3    62  LYS62       0.1561
     41  C         31.5260   55.9530   71.4380 C.2    62  LYS62       0.2260
     42  O         32.5870   56.0730   70.8270 O.2    62  LYS62      -0.2867
     43  CB        29.4580   55.0170   70.4400 C.3    62  LYS62       0.0271
     44  CG        29.7390   55.7180   69.1050 C.3    62  LYS62       0.0035
     45  CD        28.5340   55.5760   68.1860 C.3    62  LYS62       0.0206
     46  CE        28.6010   56.4860   66.9850 C.3    62  LYS62       0.1093
     47  NZ        27.2300   56.9750   66.6760 N.3    62  LYS62      -0.1314
     48  N         34.8620   54.8730   72.7720 N.3    65  MET65      -0.1230
     49  CA        35.6130   54.0520   71.8240 C.3    65  MET65       0.1702
     50  C         36.0170   54.7900   70.5320 C.2    65  MET65       0.2592
     51  O         37.0890   54.5450   69.9850 O.2    65  MET65      -0.2718
     52  CB        34.8200   52.7850   71.4750 C.3    65  MET65       0.0401
     53  CG        34.6080   51.8080   72.6320 C.3    65  MET65       0.0596
     54  SD        36.1440   51.1370   73.3240 S.3    65  MET65      -0.1393
     55  CE        36.7860   50.0710   71.9910 C.3    65  MET65       0.0692
     56  N         35.1650   55.6810   70.0400 N.am   66  GLU66      -0.1966
     57  CA        35.4970   56.4390   68.8310 C.3    66  GLU66       0.1733
     58  C         36.0470   57.8390   69.1500 C.2    66  GLU66       0.2617
     59  O         36.1330   58.6930   68.2680 O.2    66  GLU66      -0.2715
     60  CB        34.2770   56.5460   67.9040 C.3    66  GLU66       0.0429
     61  CG        34.0810   55.3190   67.0050 C.3    66  GLU66       0.1163
     62  CD        32.7020   55.2710   66.3980 C.2    66  GLU66       0.3649
     63  OE1       32.1040   56.3530   66.2860 O.co2  66  GLU66      -0.2457
     64  OE2       32.2140   54.1760   66.0430 O.co2  66  GLU66      -0.2457
     65  N         36.4340   58.0560   70.4080 N.am   67  GLY67      -0.1940
     66  CA        36.9780   59.3420   70.8300 C.3    67  GLY67       0.2014
     67  C         38.4960   59.3560   70.8910 C.2    67  GLY67       0.2639
     68  O         39.1430   58.4830   70.3340 O.2    67  GLY67      -0.2714
     69  N         39.0670   60.3440   71.5710 N.am   68  LYS68      -0.1963
     70  CA        40.5240   60.4640   71.6970 C.3    68  LYS68       0.1728
     71  C         41.2270   59.1180   71.9190 C.2    68  LYS68       0.2616
     72  O         40.7630   58.2830   72.6930 O.2    68  LYS68      -0.2715
     73  CB        40.8510   61.4320   72.8450 C.3    68  LYS68       0.0311
     74  CG        42.2390   61.2730   73.4390 C.3    68  LYS68       0.0038
     75  CD        42.3210   61.8190   74.8670 C.3    68  LYS68       0.0206
     76  CE        43.7700   61.8290   75.3730 C.3    68  LYS68       0.1093
     77  NZ        44.2990   60.4560   75.6770 N.3    68  LYS68      -0.1314
     78  N         42.3570   58.9240   71.2450 N.am   69  ALA69      -0.1977
     79  CA        43.1090   57.6770   71.3450 C.3    69  ALA69       0.1597
     80  C         44.0100   57.6130   72.5680 C.2    69  ALA69       0.2287
     81  O         44.8390   58.4920   72.8010 O.2    69  ALA69      -0.2864
     82  CB        43.9370   57.4570   70.0710 C.3    69  ALA69       0.0319
@<TRIPOS>BOND
     1    12    11    1
     2    11    10   ar
     3    11     9   ar
     4    10     8   ar
     5    28    27    1
     6     9     7   ar
     7     8     6   ar
     8     7     6   ar
     9     6     5    1
    10    27    26   ar
    11    27    25   ar
    12    26    24   ar
    13     5     2    1
    14    25    23   ar
    15    24    22   ar
    16     2     1    1
    17     2     3    1
    18    23    22   ar
    19     4     3    2
    20     3    13   am
    21    22    21    1
    22    16    15    2
    23    13    14    1
    24    64    62   ar
    25    63    62   ar
    26    62    61    1
    27    15    14    1
    28    15    17   am
    29    21    18    1
    30    47    46    1
    31    46    45    1
    32    61    60    1
    33    18    17    1
    34    18    19    1
    35    60    57    1
    36    45    44    1
    37    59    58    2
    38    19    20    2
    39    19    29   am
    40    57    58    1
    41    57    56    1
    42    44    43    1
    43    58    65   am
    44    29    30    1
    45    32    31    2
    46    51    50    2
    47    56    50   am
    48    82    79    1
    49    68    67    2
    50    65    66    1
    51    43    40    1
    52    31    30    1
    53    50    49    1
    54    30    33    1
    55    42    41    2
    56    66    67    1
    57    67    69   am
    58    36    38   ar
    59    36    34   ar
    60    38    37   ar
    61    78    79    1
    62    78    71   am
    63    40    41    1
    64    40    39    1
    65    79    80    1
    66    52    49    1
    67    52    53    1
    68    34    33    1
    69    34    35   ar
    70    69    70    1
    71    37    35   ar
    72    70    71    1
    73    70    73    1
    74    49    48    1
    75    71    72    2
    76    55    54    1
    77    80    81    2
    78    53    54    1
    79    73    74    1
    80    74    75    1
    81    75    76    1
    82    76    77    1
