@<TRIPOS>MOLECULE
tmp/1rrjC00.pdb
 114 107 0 0 0
SMALL
GASTEIGER

@<TRIPOS>ATOM
      1  N         -3.3600  -13.6280    8.2650 N.3   152  ASN152     -0.1240
      2  CA        -2.1540  -14.4050    7.9760 C.3   152  ASN152      0.1653
      3  C         -2.2780  -15.8030    8.5780 C.2   152  ASN152      0.2266
      4  O         -1.5920  -16.1310    9.5490 O.2   152  ASN152     -0.2867
      5  CB        -0.9250  -13.6780    8.5580 C.3   152  ASN152      0.1155
      6  CG        -0.6280  -12.3560    7.8610 C.2   152  ASN152      0.2627
      7  OD1        0.1440  -12.3070    6.9080 O.2   152  ASN152     -0.2716
      8  ND2       -1.2210  -11.2790    8.3510 N.am  152  ASN152     -0.0877
      9  N         -1.3320  -18.5810    7.2840 N.3   154  LYS154     -0.1245
     10  CA        -0.1260  -19.3530    6.9660 C.3   154  LYS154      0.1561
     11  C          0.9670  -18.8610    7.9030 C.2   154  LYS154      0.2260
     12  O          1.3010  -17.6670    7.9010 O.2   154  LYS154     -0.2867
     13  CB         0.3310  -19.1160    5.5170 C.3   154  LYS154      0.0271
     14  CG        -0.5370  -19.7630    4.4440 C.3   154  LYS154      0.0035
     15  CD        -0.0780  -19.3350    3.0570 C.3   154  LYS154      0.0206
     16  CE        -0.9580  -19.9290    1.9640 C.3   154  LYS154      0.1093
     17  NZ        -0.5030  -19.5390    0.5900 N.3   154  LYS154     -0.1314
     18  N          4.5650  -18.2290    9.1290 N.3   156  GLU156     -0.1245
     19  CA         5.8480  -17.9290    8.4960 C.3   156  GLU156      0.1567
     20  C          6.8420  -19.0820    8.6660 C.2   156  GLU156      0.2260
     21  O          6.9350  -19.6570    9.7550 O.2   156  GLU156     -0.2867
     22  CB         6.4220  -16.6650    9.1500 C.3   156  GLU156      0.0388
     23  CG         6.7820  -15.5470    8.2030 C.3   156  GLU156      0.1160
     24  CD         5.6120  -14.9860    7.4120 C.2   156  GLU156      0.3649
     25  OE1        5.5560  -15.2540    6.1900 O.co2 156  GLU156     -0.2457
     26  OE2        4.7700  -14.2700    8.0010 O.co2 156  GLU156     -0.2457
     27  N         15.3180   -4.8870   11.7050 N.3   164  ARG164     -0.1245
     28  CA        15.5430   -3.5990   11.0580 C.3   164  ARG164      0.1563
     29  C         16.5950   -2.8250   11.8410 C.2   164  ARG164      0.2260
     30  O         16.6710   -2.9330   13.0690 O.2   164  ARG164     -0.2867
     31  CB        14.2180   -2.8250   10.9020 C.3   164  ARG164      0.0307
     32  CG        13.2150   -3.5370    9.9680 C.3   164  ARG164      0.0489
     33  CD        11.9680   -2.7200    9.6260 C.3   164  ARG164      0.2205
     34  NE        10.9290   -2.8190   10.6450 N.pl3 164  ARG164     -0.0865
     35  CZ         9.7570   -3.4400   10.4930 C.cat 164  ARG164      0.5346
     36  NH1        9.4350   -4.0470    9.3530 N.pl3 164  ARG164      0.1354
     37  NH2        8.8860   -3.4270   11.4900 N.pl3 164  ARG164      0.1354
     38  N          1.2600  -18.2350   19.8070 N.3   216  TRP216     -0.1241
     39  CA         2.4760  -18.9920   20.1230 C.3   216  TRP216      0.1605
     40  C          3.5400  -17.9890   20.5450 C.2   216  TRP216      0.2264
     41  O          3.4220  -16.7920   20.2510 O.2   216  TRP216     -0.2867
     42  CB         2.9760  -19.8040   18.8910 C.3   216  TRP216      0.0550
     43  CG         3.3930  -18.9870   17.6730 C.ar  216  TRP216      0.0003
     44  CD1        4.6630  -18.5310   17.3750 C.ar  216  TRP216      0.0946
     45  CD2        2.5510  -18.5260   16.6100 C.ar  216  TRP216      0.0152
     46  NE1        4.6520  -17.8200   16.2080 N.ar  216  TRP216     -0.2442
     47  CE2        3.3770  -17.8000   15.7060 C.ar  216  TRP216      0.0810
     48  CE3        1.1770  -18.6550   16.3220 C.ar  216  TRP216      0.0012
     49  CZ2        2.8700  -17.1980   14.5200 C.ar  216  TRP216      0.0191
     50  CZ3        0.6690  -18.0550   15.1430 C.ar  216  TRP216      0.0001
     51  CH2        1.5240  -17.3360   14.2590 C.ar  216  TRP216      0.0015
     52  N          0.4740  -13.6290   17.0500 N.3   226  TYR226     -0.1241
     53  CA        -0.9300  -14.0030   16.8660 C.3   226  TYR226      0.1605
     54  C         -1.4210  -14.1240   15.4350 C.2   226  TYR226      0.2264
     55  O         -0.7730  -13.6700   14.4960 O.2   226  TYR226     -0.2867
     56  CB        -1.8460  -12.9590   17.5380 C.3   226  TYR226      0.0534
     57  CG        -1.5270  -12.6190   18.9750 C.ar  226  TYR226     -0.0201
     58  CD1       -0.6590  -11.5530   19.3100 C.ar  226  TYR226     -0.0009
     59  CD2       -2.0930  -13.3560   20.0140 C.ar  226  TYR226     -0.0009
     60  CE1       -0.3740  -11.2450   20.6640 C.ar  226  TYR226      0.0417
     61  CE2       -1.8230  -13.0570   21.3600 C.ar  226  TYR226      0.0417
     62  CZ        -0.9650  -12.0060   21.6780 C.ar  226  TYR226      0.1957
     63  OH        -0.7110  -11.7450   23.0040 O.3   226  TYR226     -0.2866
     64  N          6.4280   10.0060   18.5710 N.3   288  ARG288     -0.1245
     65  CA         5.8090    8.8570   19.2370 C.3   288  ARG288      0.1563
     66  C          6.2240    8.8750   20.7040 C.2   288  ARG288      0.2260
     67  O          7.2780    9.4120   21.0400 O.2   288  ARG288     -0.2867
     68  CB         6.2780    7.5350   18.6090 C.3   288  ARG288      0.0307
     69  CG         5.9270    7.3390   17.1420 C.3   288  ARG288      0.0489
     70  CD         6.4610    6.0100   16.6080 C.3   288  ARG288      0.2205
     71  NE         6.2520    5.8440   15.1670 N.pl3 288  ARG288     -0.0865
     72  CZ         7.0930    6.2490   14.2130 C.cat 288  ARG288      0.5346
     73  NH1        8.2370    6.8660   14.5170 N.pl3 288  ARG288      0.1354
     74  NH2        6.8170    5.9910   12.9420 N.pl3 288  ARG288      0.1354
     75  N         11.3590    4.8340   15.3820 N.3   332  LYS332     -0.1231
     76  CA        10.9020    3.4760   15.0170 C.3   332  LYS332      0.1693
     77  C         11.4500    3.0030   13.6630 C.2   332  LYS332      0.2592
     78  O         11.4760    3.7750   12.6990 O.2   332  LYS332     -0.2718
     79  CB         9.3690    3.4180   14.9920 C.3   332  LYS332      0.0285
     80  CG         8.7620    2.0330   14.6930 C.3   332  LYS332      0.0035
     81  CD         7.2430    2.0780   14.6810 C.3   332  LYS332      0.0206
     82  CE         6.6570    0.6810   14.4970 C.3   332  LYS332      0.1093
     83  NZ         5.1580    0.7100   14.5600 N.3   332  LYS332     -0.1314
     84  N         11.8750    1.7310   13.6210 N.am  333  ASP333     -0.1974
     85  CA        12.4480    1.0510   12.4390 C.3   333  ASP333      0.1709
     86  C         13.8120    1.6250   12.0380 C.2   333  ASP333      0.2293
     87  O         14.2900    1.3890   10.9170 O.2   333  ASP333     -0.2864
     88  CB        11.4950    1.0770   11.2180 C.3   333  ASP333      0.1436
     89  CG        10.1400    0.4300   11.4930 C.2   333  ASP333      0.3671
     90  OD1       10.0800   -0.6030   12.2000 O.co2 333  ASP333     -0.2456
     91  OD2        9.1260    0.9600   10.9910 O.co2 333  ASP333     -0.2456
     92  N          7.6230    9.4940    7.6620 N.3   432  HIS432     -0.1241
     93  CA         7.5680    8.2330    6.9280 C.3   432  HIS432      0.1621
     94  C          8.4660    8.3870    5.7000 C.2   432  HIS432      0.2264
     95  O          8.0100    8.4960    4.5560 O.2   432  HIS432     -0.2867
     96  CB         6.1270    7.8830    6.5510 C.3   432  HIS432      0.0745
     97  CG         5.2790    7.4930    7.7210 C.ar  432  HIS432      0.0817
     98  ND1        3.9370    7.7940    7.7960 N.ar  432  HIS432     -0.2268
     99  CD2        5.5880    6.8590    8.8790 C.ar  432  HIS432      0.1154
    100  CE1        3.4580    7.3670    8.9490 C.ar  432  HIS432      0.1986
    101  NE2        4.4370    6.7970    9.6260 N.ar  432  HIS432     -0.2212
    102  N          1.8950    4.0250    4.8980 N.3   518  THR518     -0.1218
    103  CA         1.5760    3.9690    6.3310 C.3   518  THR518      0.1862
    104  C          0.5190    4.9580    6.8170 C.2   518  THR518      0.2287
    105  O         -0.3990    4.5520    7.5290 O.2   518  THR518     -0.2866
    106  CB         2.8600    4.0150    7.2190 C.3   518  THR518      0.1770
    107  OG1        3.7030    2.9090    6.8750 O.3   518  THR518     -0.2211
    108  CG2        2.5250    3.8970    8.7170 C.3   518  THR518      0.0375
    109  N         -3.1350    3.8780    8.0900 N.3   522  SER522     -0.1217
    110  CA        -3.2050    3.9260    9.5510 C.3   522  SER522      0.1889
    111  C         -3.4030    5.2320   10.3050 C.2   522  SER522      0.2288
    112  O         -3.8910    5.2040   11.4280 O.2   522  SER522     -0.2866
    113  CB        -1.9520    3.2460   10.1300 C.3   522  SER522      0.2089
    114  OG        -1.7500    1.9600    9.5670 O.3   522  SER522     -0.2183
@<TRIPOS>BOND
     1    17    16    1
     2    16    15    1
     3    15    14    1
     4    14    13    1
     5    95    94    2
     6   102   103    1
     7    13    10    1
     8    94    93    1
     9    25    24   ar
    10   103   104    1
    11   103   106    1
    12    96    93    1
    13    96    97    1
    14   104   105    2
    15   107   106    1
    16     7     6    2
    17    93    92    1
    18    10     9    1
    19    10    11    1
    20   106   108    1
    21    24    26   ar
    22    24    23    1
    23    97    98   ar
    24    97    99   ar
    25    98   100   ar
    26     6     8   am
    27     6     5    1
    28    12    11    2
    29     2     1    1
    30     2     5    1
    31     2     3    1
    32   109   110    1
    33    23    22    1
    34    19    20    1
    35    19    18    1
    36    19    22    1
    37     3     4    2
    38    20    21    2
    39    99   101   ar
    40   100   101   ar
    41    36    35    1
    42   110   113    1
    43   110   111    1
    44   114   113    1
    45    33    32    1
    46    33    34    1
    47    32    31    1
    48   111   112    2
    49    35    34    2
    50    35    37    1
    51    31    28    1
    52    87    86    2
    53    91    89   ar
    54    28    27    1
    55    28    29    1
    56    88    89    1
    57    88    85    1
    58    89    90   ar
    59    29    30    2
    60    86    85    1
    61    85    84    1
    62    78    77    2
    63    74    72    1
    64    84    77   am
    65    77    76    1
    66    72    73    1
    67    72    71    2
    68    51    49   ar
    69    51    50   ar
    70    55    54    2
    71    82    83    1
    72    82    81    1
    73    49    47   ar
    74    81    80    1
    75    80    79    1
    76    79    76    1
    77    76    75    1
    78    50    48   ar
    79    71    70    1
    80    54    53    1
    81    47    46   ar
    82    47    45   ar
    83    46    44   ar
    84    48    45   ar
    85    70    69    1
    86    45    43   ar
    87    53    52    1
    88    53    56    1
    89    69    68    1
    90    44    43   ar
    91    56    57    1
    92    43    42    1
    93    64    65    1
    94    68    65    1
    95    42    39    1
    96    57    58   ar
    97    57    59   ar
    98    65    66    1
    99    58    60   ar
   100    38    39    1
   101    59    61   ar
   102    39    40    1
   103    41    40    2
   104    60    62   ar
   105    66    67    2
   106    61    62   ar
   107    62    63    1
