@<TRIPOS>MOLECULE
tmp/1rrmA00.pdb
 200 188 0 0 0
SMALL
GASTEIGER

@<TRIPOS>ATOM
      1  N         55.7070    6.0270   15.8420 N.3    36  ASP36      -0.1239
      2  CA        56.5030    6.0940   14.6170 C.3    36  ASP36       0.1674
      3  C         55.9090    5.2310   13.5000 C.2    36  ASP36       0.2266
      4  O         54.9860    4.4460   13.7280 O.2    36  ASP36      -0.2867
      5  CB        57.9830    5.7380   14.8700 C.3    36  ASP36       0.1410
      6  CG        58.1900    4.3120   15.3420 C.2    36  ASP36       0.3668
      7  OD1       57.5640    3.3920   14.7820 O.co2  36  ASP36      -0.2456
      8  OD2       59.0080    4.1100   16.2670 O.co2  36  ASP36      -0.2456
      9  N         57.0890    2.6360   11.8230 N.3    38  THR38      -0.1203
     10  CA        57.2950    1.1990   11.9100 C.3    38  THR38       0.1994
     11  C         56.2020    0.5560   12.7540 C.2    38  THR38       0.2617
     12  O         55.6410   -0.4740   12.3810 O.2    38  THR38      -0.2717
     13  CB        58.6660    0.8800   12.5320 C.3    38  THR38       0.1784
     14  OG1       59.6930    1.4840   11.7390 O.3    38  THR38      -0.2211
     15  CG2       58.8950   -0.6240   12.5900 C.3    38  THR38       0.0376
     16  N         55.8940    1.1760   13.8890 N.am   39  LEU39      -0.1979
     17  CA        54.8660    0.6540   14.7810 C.3    39  LEU39       0.1596
     18  C         53.4800    0.7030   14.1340 C.2    39  LEU39       0.2287
     19  O         52.6080   -0.1040   14.4570 O.2    39  LEU39      -0.2864
     20  CB        54.8860    1.4230   16.1040 C.3    39  LEU39       0.0297
     21  CG        56.1560    1.1570   16.9190 C.3    39  LEU39       0.0022
     22  CD1       56.2970    2.1710   18.0400 C.3    39  LEU39       0.0001
     23  CD2       56.1020   -0.2570   17.4690 C.3    39  LEU39       0.0001
     24  N         53.7420   -2.2560   11.4580 N.3    42  CYS42      -0.1235
     25  CA        53.6950   -3.5780   12.0760 C.3    42  CYS42       0.1677
     26  C         52.3650   -3.9150   12.7490 C.2    42  CYS42       0.2270
     27  O         52.1770   -5.0330   13.2280 O.2    42  CYS42      -0.2867
     28  CB        54.8380   -3.7270   13.0840 C.3    42  CYS42       0.0956
     29  SG        56.4680   -3.9080   12.3120 S.3    42  CYS42      -0.0801
     30  N         51.1820   -2.5490   15.4950 N.3    44  VAL44      -0.1245
     31  CA        51.2260   -2.3280   16.9360 C.3    44  VAL44       0.1561
     32  C         50.2540   -1.2210   17.3610 C.2    44  VAL44       0.2260
     33  O         49.4960   -1.3800   18.3200 O.2    44  VAL44      -0.2867
     34  CB        52.6570   -1.9650   17.3890 C.3    44  VAL44       0.0252
     35  CG1       52.6790   -1.6790   18.8850 C.3    44  VAL44       0.0019
     36  CG2       53.6080   -3.1070   17.0540 C.3    44  VAL44       0.0019
     37  N         64.1840    7.6730   15.3340 N.3    66  PRO66      -0.2102
     38  CA        65.0630    7.2530   16.4330 C.3    66  PRO66       0.1504
     39  C         65.9510    8.4200   16.8690 C.2    66  PRO66       0.2576
     40  O         66.4630    9.1560   16.0240 O.2    66  PRO66      -0.2718
     41  CB        65.8540    6.1090   15.8130 C.3    66  PRO66       0.0282
     42  CG        64.8370    5.4780   14.9020 C.3    66  PRO66       0.0208
     43  CD        64.2180    6.6930   14.2320 C.3    66  PRO66       0.0893
     44  N         66.1330    8.5840   18.1790 N.am   67  ASN67      -0.1961
     45  CA        66.9250    9.6970   18.7060 C.3    67  ASN67       0.1804
     46  C         66.2120   10.9490   18.2030 C.2    67  ASN67       0.2463
     47  O         66.7690   11.7260   17.4280 O.2    67  ASN67      -0.2730
     48  CB        68.3590    9.6700   18.1590 C.3    67  ASN67       0.1195
     49  CG        69.1110    8.4080   18.5390 C.2    67  ASN67       0.2630
     50  OD1       69.5960    7.6740   17.6740 O.2    67  ASN67      -0.2716
     51  ND2       69.2160    8.1500   19.8360 N.am   67  ASN67      -0.0877
     52  N         64.9650   11.1620   18.6520 N.am   68  PRO68      -0.2727
     53  CA        64.1340   12.3070   18.2590 C.3    68  PRO68       0.1402
     54  C         64.8160   13.6710   18.2930 C.2    68  PRO68       0.2269
     55  O         65.5070   14.0150   19.2480 O.2    68  PRO68      -0.2865
     56  CB        62.9430   12.2100   19.2120 C.3    68  PRO68       0.0296
     57  CG        63.5440   11.5980   20.4310 C.3    68  PRO68       0.0237
     58  CD        64.4010   10.5040   19.8440 C.3    68  PRO68       0.0939
     59  N         58.9920    3.0260   21.7470 N.3    93  GLY93      -0.1210
     60  CA        60.1500    2.9810   22.6130 C.3    93  GLY93       0.1956
     61  C         60.4700    4.3580   23.1560 C.2    93  GLY93       0.2612
     62  O         59.6130    5.2480   23.1890 O.2    93  GLY93      -0.2717
     63  N         61.7170    4.5310   23.5760 N.am   94  GLY94      -0.1942
     64  CA        62.1500    5.8000   24.1270 C.3    94  GLY94       0.2014
     65  C         61.9980    6.9890   23.1950 C.2    94  GLY94       0.2640
     66  O         61.7490    8.1020   23.6520 O.2    94  GLY94      -0.2714
     67  N         62.1470    6.7750   21.8930 N.am   95  SER95      -0.1936
     68  CA        62.0330    7.8950   20.9650 C.3    95  SER95       0.2040
     69  C         60.6320    8.5160   20.9490 C.2    95  SER95       0.2485
     70  O         60.4880    9.7190   21.1650 O.2    95  SER95      -0.2729
     71  CB        62.4840    7.4710   19.5650 C.3    95  SER95       0.2129
     72  OG        63.8830    7.2120   19.5740 O.3    95  SER95      -0.2179
     73  N         59.5810    7.7120   20.7070 N.am   96  PRO96      -0.2726
     74  CA        58.2380    8.3090   20.7030 C.3    96  PRO96       0.1402
     75  C         57.8300    8.8050   22.0990 C.2    96  PRO96       0.2269
     76  O         57.1570    9.8240   22.2340 O.2    96  PRO96      -0.2865
     77  CB        57.3380    7.1620   20.2320 C.3    96  PRO96       0.0296
     78  CG        58.2550    6.3020   19.4280 C.3    96  PRO96       0.0237
     79  CD        59.5470    6.3280   20.2070 C.3    96  PRO96       0.0939
     80  N         59.7960    9.9650   24.5100 N.3    98  ASP98      -0.1239
     81  CA        60.5010   11.1950   24.8370 C.3    98  ASP98       0.1674
     82  C         59.9500   12.3580   24.0150 C.2    98  ASP98       0.2266
     83  O         59.8590   13.4870   24.4990 O.2    98  ASP98      -0.2867
     84  CB        62.0020   11.0260   24.5960 C.3    98  ASP98       0.1410
     85  CG        62.6760   10.2280   25.6980 C.2    98  ASP98       0.3668
     86  OD1       61.9520    9.7200   26.5830 O.co2  98  ASP98      -0.2456
     87  OD2       63.9230   10.1110   25.6800 O.co2  98  ASP98      -0.2456
     88  N         56.9640   -0.1360   23.8010 N.3   136  THR136     -0.1203
     89  CA        57.0120   -1.2570   22.8670 C.3   136  THR136      0.1994
     90  C         58.4050   -1.8870   22.8290 C.2   136  THR136      0.2618
     91  O         58.6630   -2.8000   22.0480 O.2   136  THR136     -0.2717
     92  CB        56.6150   -0.8290   21.4440 C.3   136  THR136      0.1784
     93  OG1       57.5320    0.1620   20.9750 O.3   136  THR136     -0.2211
     94  CG2       55.1970   -0.2880   21.4340 C.3   136  THR136      0.0376
     95  N         59.3130   -1.3750   23.6530 N.am  137  THR137     -0.1952
     96  CA        60.6550   -1.9390   23.7440 C.3   137  THR137      0.1897
     97  C         60.8700   -2.2550   25.2170 C.2   137  THR137      0.2313
     98  O         60.2280   -1.6640   26.0830 O.2   137  THR137     -0.2863
     99  CB        61.7620   -0.9760   23.2150 C.3   137  THR137      0.1794
    100  OG1       61.8360    0.2060   24.0210 O.3   137  THR137     -0.2208
    101  CG2       61.4660   -0.5890   21.7740 C.3   137  THR137      0.0378
    102  N         64.0100    1.2700   27.7900 N.3   140  THR140     -0.1218
    103  CA        64.2130    2.6450   28.2940 C.3   140  THR140      0.1862
    104  C         63.4960    3.1030   29.5520 C.2   140  THR140      0.2287
    105  O         63.9660    4.0300   30.2180 O.2   140  THR140     -0.2866
    106  CB        63.9310    3.7480   27.2220 C.3   140  THR140      0.1770
    107  OG1       62.5240    4.0130   27.1540 O.3   140  THR140     -0.2211
    108  CG2       64.4450    3.3240   25.8630 C.3   140  THR140      0.0375
    109  N         65.2700   12.6300   26.2880 N.3   149  VAL149     -0.1245
    110  CA        66.4150   13.1630   25.5700 C.3   149  VAL149      0.1561
    111  C         66.1070   13.4810   24.1150 C.2   149  VAL149      0.2260
    112  O         65.6160   12.6350   23.3670 O.2   149  VAL149     -0.2867
    113  CB        67.6040   12.1790   25.6570 C.3   149  VAL149      0.0252
    114  CG1       67.2040   10.8260   25.1010 C.3   149  VAL149      0.0019
    115  CG2       68.8100   12.7400   24.9160 C.3   149  VAL149      0.0019
    116  N         72.8720   15.3690   21.9120 N.3   158  LYS158     -0.1245
    117  CA        71.6470   14.9050   22.5500 C.3   158  LYS158      0.1561
    118  C         71.5990   15.5770   23.9140 C.2   158  LYS158      0.2260
    119  O         72.5720   15.5280   24.6630 O.2   158  LYS158     -0.2867
    120  CB        71.6700   13.3800   22.7240 C.3   158  LYS158      0.0271
    121  CG        71.3900   12.5960   21.4500 C.3   158  LYS158      0.0035
    122  CD        71.7020   11.1070   21.6150 C.3   158  LYS158      0.0206
    123  CE        70.7780   10.4120   22.6060 C.3   158  LYS158      0.1093
    124  NZ        69.4320   10.1180   22.0340 N.3   158  LYS158     -0.1314
    125  N         56.5360   -8.0830   21.7230 N.3   177  ASP177     -0.1225
    126  CA        56.9390   -9.3030   21.0170 C.3   177  ASP177      0.1805
    127  C         57.4750   -9.1260   19.6000 C.2   177  ASP177      0.2598
    128  O         58.3060   -9.9160   19.1530 O.2   177  ASP177     -0.2718
    129  CB        55.7870  -10.3130   20.9700 C.3   177  ASP177      0.1424
    130  CG        55.3900  -10.8200   22.3430 C.2   177  ASP177      0.3668
    131  OD1       56.2750  -10.9450   23.2190 O.co2 177  ASP177     -0.2456
    132  OD2       54.1920  -11.1130   22.5410 O.co2 177  ASP177     -0.2456
    133  N         57.0040   -8.0970   18.9010 N.am  178  GLY178     -0.1957
    134  CA        57.4370   -7.8510   17.5350 C.3   178  GLY178      0.1869
    135  C         58.8620   -7.3480   17.3830 C.2   178  GLY178      0.2309
    136  O         59.3780   -7.2660   16.2640 O.2   178  GLY178     -0.2863
    137  N         62.6390   -7.1300   16.8500 N.3   179  PRO179     -0.2116
    138  CA        63.5500   -8.1050   16.2520 C.3   179  PRO179      0.1372
    139  C         64.5020   -8.5350   17.3760 C.2   179  PRO179      0.2244
    140  O         64.7630   -7.7650   18.3070 O.2   179  PRO179     -0.2868
    141  CB        64.2750   -7.2880   15.1870 C.3   179  PRO179      0.0268
    142  CG        63.2360   -6.3240   14.7440 C.3   179  PRO179      0.0207
    143  CD        62.6030   -5.8890   16.0570 C.3   179  PRO179      0.0892
    144  N         66.9950   -6.0460   18.5160 N.3   182  LEU182     -0.1245
    145  CA        66.4250   -4.9000   19.2180 C.3   182  LEU182      0.1561
    146  C         66.1660   -5.2920   20.6720 C.2   182  LEU182      0.2260
    147  O         66.3930   -4.4970   21.5880 O.2   182  LEU182     -0.2867
    148  CB        65.1130   -4.4560   18.5550 C.3   182  LEU182      0.0270
    149  CG        64.4220   -3.2260   19.1610 C.3   182  LEU182      0.0019
    150  CD1       65.3710   -2.0310   19.1530 C.3   182  LEU182      0.0001
    151  CD2       63.1710   -2.9080   18.3700 C.3   182  LEU182      0.0001
    152  N         67.9110   -3.0910   23.4930 N.3   186  THR186     -0.1218
    153  CA        67.1010   -2.4060   24.4980 C.3   186  THR186      0.1862
    154  C         67.2230   -3.0860   25.8580 C.2   186  THR186      0.2287
    155  O         67.1230   -2.4290   26.8990 O.2   186  THR186     -0.2866
    156  CB        65.5970   -2.2950   24.0830 C.3   186  THR186      0.1770
    157  OG1       65.0110   -3.5950   23.9400 O.3   186  THR186     -0.2211
    158  CG2       65.4720   -1.5400   22.7740 C.3   186  THR186      0.0375
    159  N         70.3090   -1.9090   27.4380 N.3   189  ASP189     -0.1239
    160  CA        70.1160   -0.5130   27.8180 C.3   189  ASP189      0.1674
    161  C         69.4980   -0.5580   29.2180 C.2   189  ASP189      0.2266
    162  O         69.9330    0.1490   30.1270 O.2   189  ASP189     -0.2867
    163  CB        69.1700    0.1810   26.8280 C.3   189  ASP189      0.1410
    164  CG        68.8020    1.6030   27.2450 C.2   189  ASP189      0.3668
    165  OD1       69.6340    2.3000   27.8640 O.co2 189  ASP189     -0.2456
    166  OD2       67.6710    2.0350   26.9350 O.co2 189  ASP189     -0.2456
    167  N         70.8680    0.7210   32.8420 N.3   193  HIS193     -0.1241
    168  CA        70.1070    1.5900   33.7330 C.3   193  HIS193      0.1621
    169  C         70.1980    1.0830   35.1730 C.2   193  HIS193      0.2264
    170  O         70.4560    1.8540   36.1040 O.2   193  HIS193     -0.2867
    171  CB        68.6360    1.6190   33.3110 C.3   193  HIS193      0.0745
    172  CG        68.3820    2.3800   32.0490 C.ar  193  HIS193      0.0817
    173  ND1       67.2170    2.2440   31.3220 N.ar  193  HIS193     -0.2268
    174  CD2       69.1330    3.2950   31.3910 C.ar  193  HIS193      0.1154
    175  CE1       67.2650    3.0400   30.2690 C.ar  193  HIS193      0.1986
    176  NE2       68.4160    3.6890   30.2870 N.ar  193  HIS193     -0.2212
    177  N         75.5020    9.0310   24.8830 N.3   257  HIS257     -0.1241
    178  CA        74.7460   10.1010   24.2510 C.3   257  HIS257      0.1621
    179  C         75.4540   10.7900   23.0870 C.2   257  HIS257      0.2264
    180  O         74.8460   11.0100   22.0370 O.2   257  HIS257     -0.2867
    181  CB        74.3010   11.1130   25.3100 C.3   257  HIS257      0.0745
    182  CG        73.1800   10.6120   26.1660 C.ar  257  HIS257      0.0817
    183  ND1       72.8550   11.1730   27.3820 N.ar  257  HIS257     -0.2268
    184  CD2       72.3080    9.5920   25.9780 C.ar  257  HIS257      0.1154
    185  CE1       71.8340   10.5200   27.9070 C.ar  257  HIS257      0.1986
    186  NE2       71.4830    9.5560   27.0750 N.ar  257  HIS257     -0.2212
    187  N         70.9720    3.7600   20.9460 N.3   267  HIS267     -0.1226
    188  CA        71.2930    3.9590   22.3610 C.3   267  HIS267      0.1752
    189  C         71.7530    2.6910   23.0850 C.2   267  HIS267      0.2596
    190  O         72.7970    2.6800   23.7380 O.2   267  HIS267     -0.2718
    191  CB        70.0690    4.5500   23.0640 C.3   267  HIS267      0.0759
    192  CG        70.2990    4.9100   24.5000 C.ar  267  HIS267      0.0818
    193  ND1       71.2140    5.8620   24.8900 N.ar  267  HIS267     -0.2268
    194  CD2       69.6960    4.4790   25.6340 C.ar  267  HIS267      0.1154
    195  CE1       71.1630    6.0080   26.2020 C.ar  267  HIS267      0.1986
    196  NE2       70.2500    5.1810   26.6770 N.ar  267  HIS267     -0.2212
    197  N         70.9720    1.6240   22.9670 N.am  268  GLY268     -0.1957
    198  CA        71.3180    0.3760   23.6270 C.3   268  GLY268      0.1869
    199  C         72.6280   -0.2510   23.1920 C.2   268  GLY268      0.2309
    200  O         73.3370   -0.8480   24.0070 O.2   268  GLY268     -0.2863
@<TRIPOS>BOND
     1    24    25    1
     2    14    13    1
     3     9    10    1
     4    10    13    1
     5    10    11    1
     6    25    26    1
     7    25    28    1
     8    29    28    1
     9    12    11    2
    10    13    15    1
    11    26    27    2
    12    11    16   am
    13     3     4    2
    14     3     2    1
    15    16    17    1
    16    18    19    2
    17    18    17    1
    18    43    42    1
    19    43    37    1
    20     2     5    1
    21     2     1    1
    22   142   141    1
    23   142   143    1
    24    17    20    1
    25     7     6   ar
    26     5     6    1
    27    42    41    1
    28   141   138    1
    29    37    38    1
    30     6     8   ar
    31    30    31    1
    32    41    38    1
    33    40    39    2
    34   143   137    1
    35    20    21    1
    36   138   137    1
    37   138   139    1
    38   136   135    2
    39    38    39    1
    40    39    44   am
    41    21    23    1
    42    21    22    1
    43    31    32    1
    44    31    34    1
    45    36    34    1
    46    32    33    2
    47   139   140    2
    48   135   134    1
    49    34    35    1
    50    47    46    2
    51   134   133    1
    52    50    49    2
    53    48    49    1
    54    48    45    1
    55    44    45    1
    56    46    52   am
    57    46    45    1
    58    53    54    1
    59    53    52    1
    60    53    56    1
    61    54    55    2
    62   151   149    1
    63   144   145    1
    64    49    51   am
    65   148   149    1
    66   148   145    1
    67    52    58    1
    68   133   127   am
    69   150   149    1
    70   128   127    2
    71    56    57    1
    72   145   146    1
    73    78    79    1
    74    78    77    1
    75    71    72    1
    76    71    68    1
    77   127   126    1
    78    58    57    1
    79    79    73    1
    80    77    74    1
    81   146   147    2
    82    74    73    1
    83    74    75    1
    84    73    69   am
    85   187   188    1
    86    69    68    1
    87    69    70    2
    88    68    67    1
    89   129   126    1
    90   129   130    1
    91    93    92    1
    92   126   125    1
    93    94    92    1
    94    92    89    1
    95   121   122    1
    96   121   120    1
    97   122   123    1
    98    59    60    1
    99   101    99    1
   100    67    65   am
   101   116   117    1
   102   124   123    1
   103   180   179    2
   104    91    90    2
   105    75    76    2
   106   130   132   ar
   107   130   131   ar
   108   188   191    1
   109   188   189    1
   110   117   120    1
   111   117   118    1
   112    60    61    1
   113   158   156    1
   114    90    89    1
   115    90    95   am
   116    89    88    1
   117   197   189   am
   118   197   198    1
   119   191   192    1
   120   189   190    2
   121   179   178    1
   122    61    62    2
   123    61    63   am
   124   199   198    1
   125   199   200    2
   126    65    66    2
   127    65    64    1
   128    99    96    1
   129    99   100    1
   130   112   111    2
   131   152   153    1
   132    63    64    1
   133    95    96    1
   134    96    97    1
   135   118   119    2
   136   157   156    1
   137    82    83    2
   138    82    81    1
   139   156   153    1
   140   111   110    1
   141   178   177    1
   142   178   181    1
   143   153   154    1
   144   192   193   ar
   145   192   194   ar
   146    80    81    1
   147    84    81    1
   148    84    85    1
   149   193   195   ar
   150   115   113    1
   151   114   113    1
   152    97    98    2
   153   181   182    1
   154   110   113    1
   155   110   109    1
   156   194   196   ar
   157    87    85   ar
   158    85    86   ar
   159   154   155    2
   160   108   106    1
   161   184   182   ar
   162   184   186   ar
   163   182   183   ar
   164   195   196   ar
   165   163   164    1
   166   163   160    1
   167   166   164   ar
   168   186   185   ar
   169   107   106    1
   170   106   103    1
   171   164   165   ar
   172   183   185   ar
   173   159   160    1
   174   102   103    1
   175   160   161    1
   176   103   104    1
   177   161   162    2
   178   104   105    2
   179   175   176   ar
   180   175   173   ar
   181   176   174   ar
   182   173   172   ar
   183   174   172   ar
   184   172   171    1
   185   167   168    1
   186   171   168    1
   187   168   169    1
   188   169   170    2
