@<TRIPOS>MOLECULE
tmp/1rrvA01.pdb
 169 158 0 0 0
SMALL
GASTEIGER

@<TRIPOS>ATOM
      1  N         26.6060   29.2500  130.9600 N.3    10  THR10      -0.1203
      2  CA        26.6620   27.8980  130.4310 C.3    10  THR10       0.1994
      3  C         27.9410   27.6200  129.6440 C.2    10  THR10       0.2618
      4  O         28.8860   28.4170  129.6600 O.2    10  THR10      -0.2717
      5  CB        25.4330   27.6440  129.5250 C.3    10  THR10       0.1784
      6  OG1       25.5030   28.5030  128.3740 O.3    10  THR10      -0.2211
      7  CG2       24.1360   27.9560  130.2870 C.3    10  THR10       0.0376
      8  N         27.9520   26.4830  128.9500 N.am   11  ARG11      -0.1965
      9  CA        29.0860   26.0600  128.1320 C.3    11  ARG11       0.1729
     10  C         29.6160   27.2200  127.2890 C.2    11  ARG11       0.2616
     11  O         30.8230   27.4540  127.2330 O.2    11  ARG11      -0.2715
     12  CB        28.6630   24.9110  127.2080 C.3    11  ARG11       0.0348
     13  CG        29.7750   24.3830  126.2900 C.3    11  ARG11       0.0492
     14  CD        30.6620   23.3720  126.9990 C.3    11  ARG11       0.2205
     15  NE        31.6470   22.7690  126.0990 N.pl3  11  ARG11      -0.0865
     16  CZ        32.7310   23.3950  125.6560 C.cat  11  ARG11       0.5346
     17  NH1       32.9750   24.6460  126.0280 N.pl3  11  ARG11       0.1354
     18  NH2       33.5760   22.7700  124.8480 N.pl3  11  ARG11       0.1354
     19  N         28.7050   27.9450  126.6450 N.am   12  GLY12      -0.1955
     20  CA        29.0820   29.0690  125.8030 C.3    12  GLY12       0.1869
     21  C         29.9130   30.1570  126.4620 C.2    12  GLY12       0.2309
     22  O         30.8510   30.6800  125.8520 O.2    12  GLY12      -0.2863
     23  N         33.4180   28.7740  127.3370 N.3    15  GLU15      -0.1231
     24  CA        34.2930   28.7250  126.1740 C.3    15  GLU15       0.1699
     25  C         34.8060   30.1180  125.8240 C.2    15  GLU15       0.2592
     26  O         35.9320   30.2660  125.3480 O.2    15  GLU15      -0.2718
     27  CB        33.5720   28.0950  124.9780 C.3    15  GLU15       0.0402
     28  CG        34.5080   27.7240  123.8220 C.3    15  GLU15       0.1161
     29  CD        35.5660   26.6810  124.2060 C.2    15  GLU15       0.3649
     30  OE1       36.5900   26.5940  123.5000 O.co2  15  GLU15      -0.2457
     31  OE2       35.3800   25.9460  125.2010 O.co2  15  GLU15      -0.2457
     32  N         33.9890   31.1430  126.0560 N.am   16  ILE16      -0.1980
     33  CA        34.4190   32.5110  125.7890 C.3    16  ILE16       0.1595
     34  C         35.5930   32.8350  126.7210 C.2    16  ILE16       0.2287
     35  O         36.5580   33.4960  126.3200 O.2    16  ILE16      -0.2864
     36  CB        33.2850   33.5370  126.0510 C.3    16  ILE16       0.0276
     37  CG1       32.1050   33.2720  125.1100 C.3    16  ILE16       0.0022
     38  CG2       33.8010   34.9550  125.8700 C.3    16  ILE16       0.0022
     39  CD1       32.4930   33.0980  123.6770 C.3    16  ILE16       0.0001
     40  N         37.4410   33.1210  120.4790 N.3   218  LEU218     -0.1245
     41  CA        37.5850   31.6950  120.1970 C.3   218  LEU218      0.1561
     42  C         39.0590   31.3000  120.1440 C.2   218  LEU218      0.2260
     43  O         39.9210   32.1290  119.8500 O.2   218  LEU218     -0.2867
     44  CB        36.9450   31.3610  118.8430 C.3   218  LEU218      0.0270
     45  CG        35.4220   31.3240  118.7160 C.3   218  LEU218      0.0019
     46  CD1       35.0200   31.3240  117.2470 C.3   218  LEU218      0.0001
     47  CD2       34.8940   30.0830  119.4140 C.3   218  LEU218      0.0001
     48  N         40.6770   25.2080  118.2000 N.3   221  ASP221     -0.1239
     49  CA        40.4290   23.9040  118.8020 C.3   221  ASP221      0.1674
     50  C         41.2270   22.8540  118.0360 C.2   221  ASP221      0.2266
     51  O         40.8960   22.5240  116.8960 O.2   221  ASP221     -0.2867
     52  CB        38.9380   23.5640  118.7350 C.3   221  ASP221      0.1410
     53  CG        38.5410   22.4850  119.7270 C.2   221  ASP221      0.3668
     54  OD1       39.4160   21.6920  120.1300 O.co2 221  ASP221     -0.2456
     55  OD2       37.3480   22.4220  120.0980 O.co2 221  ASP221     -0.2456
     56  N         41.8000   19.7450  119.3160 N.3   223  ARG223     -0.1245
     57  CA        41.3200   18.4230  119.7000 C.3   223  ARG223      0.1563
     58  C         40.9190   17.5880  118.4890 C.2   223  ARG223      0.2260
     59  O         40.2530   18.0730  117.5800 O.2   223  ARG223     -0.2867
     60  CB        40.1170   18.5330  120.6410 C.3   223  ARG223      0.0307
     61  CG        40.4130   19.1660  121.9890 C.3   223  ARG223      0.0489
     62  CD        39.1670   19.1690  122.8560 C.3   223  ARG223      0.2205
     63  NE        38.0990   19.9790  122.2760 N.pl3 223  ARG223     -0.0865
     64  CZ        36.8530   20.0160  122.7410 C.cat 223  ARG223      0.5346
     65  NH1       35.9460   20.7870  122.1540 N.pl3 223  ARG223      0.1354
     66  NH2       36.5130   19.2760  123.7880 N.pl3 223  ARG223      0.1354
     67  N         23.2650   22.3570  121.9710 N.3   245  GLY245     -0.1210
     68  CA        24.0910   22.7940  123.0800 C.3   245  GLY245      0.1956
     69  C         23.4980   22.7280  124.4750 C.2   245  GLY245      0.2612
     70  O         23.0000   21.6850  124.9080 O.2   245  GLY245     -0.2717
     71  N         23.5430   23.8590  125.1750 N.am  246  SER246     -0.1952
     72  CA        23.0580   23.9240  126.5450 C.3   246  SER246      0.1924
     73  C         21.5390   23.9750  126.6760 C.2   246  SER246      0.2314
     74  O         21.0200   24.1620  127.7750 O.2   246  SER246     -0.2863
     75  CB        23.6960   25.1210  127.2590 C.3   246  SER246      0.2116
     76  OG        25.1170   25.0140  127.2280 O.3   246  SER246     -0.2180
     77  N         24.2400   15.2230  118.5340 N.3   273  SER273     -0.1217
     78  CA        24.9590   15.5220  119.7690 C.3   273  SER273      0.1889
     79  C         23.9400   15.3120  120.8850 C.2   273  SER273      0.2288
     80  O         22.8700   15.9150  120.8610 O.2   273  SER273     -0.2866
     81  CB        25.4470   16.9720  119.7780 C.3   273  SER273      0.2089
     82  OG        26.5660   17.1460  118.9280 O.3   273  SER273     -0.2183
     83  N         23.9940   16.2340  124.0970 N.3   275  GLY275     -0.1225
     84  CA        23.7420   17.3490  124.9930 C.3   275  GLY275      0.1811
     85  C         23.6820   16.8610  126.4310 C.2   275  GLY275      0.2280
     86  O         23.7570   15.6590  126.6880 O.2   275  GLY275     -0.2866
     87  N         28.9040   12.6970  122.0620 N.3   292  ASP292     -0.1225
     88  CA        28.9260   13.5610  123.2290 C.3   292  ASP292      0.1805
     89  C         29.8470   14.7120  122.8360 C.2   292  ASP292      0.2598
     90  O         29.9590   15.0200  121.6540 O.2   292  ASP292     -0.2718
     91  CB        29.4720   12.8060  124.4380 C.3   292  ASP292      0.1424
     92  CG        28.5330   11.7040  124.9060 C.2   292  ASP292      0.3668
     93  OD1       27.3690   12.0160  125.2470 O.co2 292  ASP292     -0.2456
     94  OD2       28.9520   10.5260  124.9320 O.co2 292  ASP292     -0.2456
     95  N         30.5020   15.3420  123.8050 N.am  293  GLU293     -0.1965
     96  CA        31.4060   16.4550  123.5190 C.3   293  GLU293      0.1733
     97  C         32.4130   16.1100  122.4200 C.2   293  GLU293      0.2616
     98  O         33.1040   15.0980  122.5000 O.2   293  GLU293     -0.2715
     99  CB        32.1690   16.8510  124.7860 C.3   293  GLU293      0.0429
    100  CG        33.3040   17.8530  124.5500 C.3   293  GLU293      0.1163
    101  CD        32.8080   19.2680  124.2830 C.2   293  GLU293      0.3649
    102  OE1       33.6410   20.1420  123.9420 O.co2 293  GLU293     -0.2457
    103  OE2       31.5890   19.5070  124.4240 O.co2 293  GLU293     -0.2457
    104  N         32.5020   16.9660  121.4060 N.am  294  VAL294     -0.1977
    105  CA        33.4210   16.7600  120.2870 C.3   294  VAL294      0.1596
    106  C         33.9140   18.1110  119.7620 C.2   294  VAL294      0.2287
    107  O         33.2890   19.1410  120.0090 O.2   294  VAL294     -0.2864
    108  CB        32.7150   15.9790  119.1380 C.3   294  VAL294      0.0276
    109  CG1       33.4920   16.1030  117.8470 C.3   294  VAL294      0.0022
    110  CG2       32.5750   14.5150  119.5200 C.3   294  VAL294      0.0022
    111  N         33.8700   20.8150  117.5470 N.3   296  PHE296     -0.1227
    112  CA        32.9730   21.3050  116.5040 C.3   296  PHE296      0.1736
    113  C         33.7040   22.0450  115.3890 C.2   296  PHE296      0.2595
    114  O         33.2910   21.9930  114.2310 O.2   296  PHE296     -0.2718
    115  CB        31.8880   22.2160  117.0970 C.3   296  PHE296      0.0547
    116  CG        30.7250   21.4750  117.6960 C.ar  296  PHE296     -0.0202
    117  CD1       30.6270   20.0920  117.5900 C.ar  296  PHE296     -0.0042
    118  CD2       29.7090   22.1680  118.3490 C.ar  296  PHE296     -0.0042
    119  CE1       29.5330   19.4090  118.1210 C.ar  296  PHE296     -0.0003
    120  CE2       28.6140   21.4980  118.8830 C.ar  296  PHE296     -0.0003
    121  CZ        28.5230   20.1140  118.7700 C.ar  296  PHE296     -0.0000
    122  N         34.7780   22.7430  115.7390 N.am  297  GLN297     -0.1979
    123  CA        35.5590   23.4670  114.7480 C.3   297  GLN297      0.1601
    124  C         36.0770   22.4770  113.7010 C.2   297  GLN297      0.2287
    125  O         36.1830   22.8060  112.5160 O.2   297  GLN297     -0.2864
    126  CB        36.7260   24.1950  115.4210 C.3   297  GLN297      0.0394
    127  CG        36.3230   25.4970  116.0970 C.3   297  GLN297      0.0908
    128  CD        37.4470   26.1190  116.9090 C.2   297  GLN297      0.2608
    129  OE1       38.5880   26.2110  116.4480 O.2   297  GLN297     -0.2717
    130  NE2       37.1240   26.5630  118.1230 N.am  297  GLN297     -0.0878
    131  N         20.7330   25.4980  117.8830 N.3   309  HIS309     -0.1241
    132  CA        19.8890   26.4230  118.6270 C.3   309  HIS309      0.1621
    133  C         20.1230   27.9180  118.4070 C.2   309  HIS309      0.2264
    134  O         19.3220   28.7360  118.8390 O.2   309  HIS309     -0.2867
    135  CB        20.0040   26.1010  120.1130 C.3   309  HIS309      0.0745
    136  CG        21.4110   26.0760  120.6200 C.ar  309  HIS309      0.0817
    137  ND1       22.4480   25.5180  119.9050 N.ar  309  HIS309     -0.2268
    138  CD2       21.9440   26.4920  121.7930 C.ar  309  HIS309      0.1154
    139  CE1       23.5600   25.5900  120.6180 C.ar  309  HIS309      0.1986
    140  NE2       23.2800   26.1760  121.7680 N.ar  309  HIS309     -0.2212
    141  N         22.8000   29.7660  119.5770 N.3   311  SER311     -0.1202
    142  CA        23.5600   30.4700  120.6000 C.3   311  SER311      0.2020
    143  C         24.8070   31.0050  119.8920 C.2   311  SER311      0.2619
    144  O         25.2370   30.4450  118.8880 O.2   311  SER311     -0.2717
    145  CB        23.9380   29.5350  121.7470 C.3   311  SER311      0.2103
    146  OG        22.9210   29.5610  122.7350 O.3   311  SER311     -0.2182
    147  N         25.3760   32.0860  120.4170 N.am  312  ALA312     -0.1965
    148  CA        26.5280   32.7530  119.8030 C.3   312  ALA312      0.1728
    149  C         27.7250   31.8980  119.3910 C.2   312  ALA312      0.2617
    150  O         28.1890   31.9840  118.2530 O.2   312  ALA312     -0.2715
    151  CB        27.0030   33.8880  120.7160 C.3   312  ALA312      0.0334
    152  N         28.2210   31.0820  120.3150 N.am  313  GLY313     -0.1940
    153  CA        29.3880   30.2630  120.0370 C.3   313  GLY313      0.2014
    154  C         29.2310   29.2520  118.9220 C.2   313  GLY313      0.2639
    155  O         30.0480   29.1960  117.9980 O.2   313  GLY313     -0.2714
    156  N         28.1880   28.4360  119.0180 N.am  314  THR314     -0.1950
    157  CA        27.9300   27.4230  118.0160 C.3   314  THR314      0.1897
    158  C         27.7310   28.0780  116.6510 C.2   314  THR314      0.2313
    159  O         28.2110   27.5670  115.6440 O.2   314  THR314     -0.2863
    160  CB        26.6870   26.5890  118.3910 C.3   314  THR314      0.1794
    161  OG1       26.8780   26.0260  119.6960 O.3   314  THR314     -0.2208
    162  CG2       26.4710   25.4510  117.3950 C.3   314  THR314      0.0378
    163  N         31.1290   29.3980  115.2810 N.3   317  VAL317     -0.1245
    164  CA        31.9200   28.2520  114.8590 C.3   317  VAL317      0.1561
    165  C         31.4620   27.7140  113.5120 C.2   317  VAL317      0.2260
    166  O         32.2830   27.3760  112.6540 O.2   317  VAL317     -0.2867
    167  CB        31.8520   27.1300  115.9050 C.3   317  VAL317      0.0252
    168  CG1       32.4890   25.8490  115.3530 C.3   317  VAL317      0.0019
    169  CG2       32.5610   27.5800  117.1700 C.3   317  VAL317      0.0019
@<TRIPOS>BOND
     1   125   124    2
     2   166   165    2
     3   165   164    1
     4   124   123    1
     5   114   113    2
     6   123   126    1
     7   123   122    1
     8   164   163    1
     9   164   167    1
    10   168   167    1
    11   113   122   am
    12   113   112    1
    13   126   127    1
    14   159   158    2
    15   167   169    1
    16   127   128    1
    17   129   128    2
    18   112   115    1
    19   112   111    1
    20   158   157    1
    21    51    50    2
    22   128   130   am
    23   115   116    1
    24    46    45    1
    25   162   160    1
    26    59    58    2
    27   117   116   ar
    28   117   119   ar
    29   116   118   ar
    30   109   108    1
    31   131   132    1
    32   155   154    2
    33   157   160    1
    34   157   156    1
    35    50    49    1
    36   119   121   ar
    37    48    49    1
    38   150   149    2
    39   118   120   ar
    40   160   161    1
    41   133   132    1
    42   133   134    2
    43    58    57    1
    44    77    78    1
    45   132   135    1
    46    45    44    1
    47    45    47    1
    48    52    49    1
    49    52    53    1
    50   121   120   ar
    51    44    41    1
    52   144   143    2
    53   154   156   am
    54   154   153    1
    55    82    81    1
    56   108   110    1
    57   108   105    1
    58    56    57    1
    59   149   148    1
    60   149   152   am
    61   141   142    1
    62    57    60    1
    63    53    55   ar
    64    53    54   ar
    65   106   107    2
    66   106   105    1
    67    78    81    1
    68    78    79    1
    69   148   147    1
    70   148   151    1
    71    43    42    2
    72   143   147   am
    73   143   142    1
    74   137   139   ar
    75   137   136   ar
    76   153   152    1
    77   135   136    1
    78    42    41    1
    79    41    40    1
    80   105   104    1
    81   142   145    1
    82   139   140   ar
    83   136   138   ar
    84    60    61    1
    85    80    79    2
    86   104    97   am
    87    90    89    2
    88   145   146    1
    89   140   138   ar
    90    67    68    1
    91    61    62    1
    92    87    88    1
    93    65    64    1
    94    63    64    2
    95    63    62    1
    96    97    98    2
    97    97    96    1
    98    64    66    1
    99    89    88    1
   100    89    95   am
   101    68    69    1
   102    88    91    1
   103    30    29   ar
   104    96    95    1
   105    96    99    1
   106    39    37    1
   107    28    29    1
   108    28    27    1
   109   102   101   ar
   110    83    84    1
   111    29    31   ar
   112   101   103   ar
   113   101   100    1
   114    91    92    1
   115    69    70    2
   116    69    71   am
   117   100    99    1
   118    18    16    1
   119    92    94   ar
   120    92    93   ar
   121    27    24    1
   122    84    85    1
   123    37    36    1
   124    71    72    1
   125    26    25    2
   126    16    17    1
   127    16    15    2
   128    33    36    1
   129    33    32    1
   130    33    34    1
   131    20    21    1
   132    20    19    1
   133    25    32   am
   134    25    24    1
   135    22    21    2
   136    38    36    1
   137    15    14    1
   138    24    23    1
   139    13    14    1
   140    13    12    1
   141    35    34    2
   142    85    86    2
   143    72    73    1
   144    72    75    1
   145    19    10   am
   146    73    74    2
   147    12     9    1
   148    76    75    1
   149    11    10    2
   150    10     9    1
   151     9     8    1
   152     6     5    1
   153     8     3   am
   154     5     7    1
   155     5     2    1
   156     3     4    2
   157     3     2    1
   158     2     1    1
