@<TRIPOS>MOLECULE
tmp/1rrvA02.pdb
 91 86 0 0 0
SMALL
GASTEIGER

@<TRIPOS>ATOM
      1  N         29.7350   33.1690  134.9190 N.3     8  CYS8       -0.1221
      2  CA        28.4910   32.7100  135.5350 C.3     8  CYS8        0.1808
      3  C         27.6140   32.4790  134.3240 C.2     8  CYS8        0.2602
      4  O         26.9850   33.4030  133.8160 O.2     8  CYS8       -0.2717
      5  CB        27.8660   33.7760  136.4380 C.3     8  CYS8        0.0970
      6  SG        26.3530   33.1820  137.3030 S.3     8  CYS8       -0.0800
      7  N         27.5900   31.2410  133.8450 N.am    9  GLY9       -0.1942
      8  CA        26.8180   30.9470  132.6560 C.3     9  GLY9        0.2014
      9  C         26.9690   29.5120  132.2050 C.2     9  GLY9        0.2639
     10  O         27.4210   28.6520  132.9590 O.2     9  GLY9       -0.2714
     11  N         26.6060   29.2500  130.9600 N.am   10  THR10      -0.1950
     12  CA        26.6620   27.8980  130.4310 C.3    10  THR10       0.1897
     13  C         27.9410   27.6200  129.6440 C.2    10  THR10       0.2313
     14  O         28.8860   28.4170  129.6600 O.2    10  THR10      -0.2863
     15  CB        25.4330   27.6440  129.5250 C.3    10  THR10       0.1794
     16  OG1       25.5030   28.5030  128.3740 O.3    10  THR10      -0.2208
     17  CG2       24.1360   27.9560  130.2870 C.3    10  THR10       0.0378
     18  N         29.5740   30.5100  127.6960 N.3    13  ASP13      -0.1239
     19  CA        30.3060   31.5460  128.4180 C.3    13  ASP13       0.1674
     20  C         31.6580   31.0080  128.8710 C.2    13  ASP13       0.2266
     21  O         32.6590   31.7240  128.8530 O.2    13  ASP13      -0.2867
     22  CB        29.5000   32.0220  129.6190 C.3    13  ASP13       0.1410
     23  CG        28.1150   32.5050  129.2280 C.2    13  ASP13       0.3668
     24  OD1       28.0100   33.4290  128.3890 O.co2  13  ASP13      -0.2456
     25  OD2       27.1300   31.9470  129.7550 O.co2  13  ASP13      -0.2456
     26  N         29.0290   36.3510  131.2890 N.3   102  GLY102     -0.1210
     27  CA        27.8390   35.6920  131.7880 C.3   102  GLY102      0.1956
     28  C         26.8980   36.6000  132.5470 C.2   102  GLY102      0.2612
     29  O         26.8040   37.7980  132.2650 O.2   102  GLY102     -0.2717
     30  N         26.2250   36.0330  133.5390 N.am  103  ASP103     -0.1959
     31  CA        25.2240   36.7710  134.3050 C.3   103  ASP103      0.1840
     32  C         25.6420   38.1670  134.7830 C.2   103  ASP103      0.2621
     33  O         26.6260   38.3200  135.5000 O.2   103  ASP103     -0.2715
     34  CB        24.7580   35.9230  135.4880 C.3   103  ASP103      0.1450
     35  CG        23.5910   36.5490  136.2220 C.2   103  ASP103      0.3671
     36  OD1       23.8360   37.2690  137.2110 O.co2 103  ASP103     -0.2456
     37  OD2       22.4310   36.3300  135.8000 O.co2 103  ASP103     -0.2456
     38  N         24.8680   39.1720  134.3830 N.am  104  LEU104     -0.1977
     39  CA        25.1310   40.5640  134.7560 C.3   104  LEU104      0.1596
     40  C         25.1520   40.7660  136.2720 C.2   104  LEU104      0.2287
     41  O         26.0300   41.4540  136.8000 O.2   104  LEU104     -0.2864
     42  CB        24.0760   41.4850  134.1290 C.3   104  LEU104      0.0297
     43  CG        24.2870   43.0010  134.2790 C.3   104  LEU104      0.0022
     44  CD1       25.6020   43.3970  133.6070 C.3   104  LEU104      0.0001
     45  CD2       23.1190   43.7640  133.6340 C.3   104  LEU104      0.0001
     46  N         33.8420   43.5240  131.3360 N.3   123  TYR123     -0.1241
     47  CA        32.6990   42.6280  131.1690 C.3   123  TYR123      0.1605
     48  C         32.4010   42.5140  129.6800 C.2   123  TYR123      0.2264
     49  O         32.4520   43.5080  128.9550 O.2   123  TYR123     -0.2867
     50  CB        31.4710   43.1700  131.9030 C.3   123  TYR123      0.0534
     51  CG        30.1990   42.3560  131.6900 C.ar  123  TYR123     -0.0201
     52  CD1       30.0400   41.1000  132.2810 C.ar  123  TYR123     -0.0009
     53  CD2       29.1420   42.8650  130.9360 C.ar  123  TYR123     -0.0009
     54  CE1       28.8580   40.3740  132.1350 C.ar  123  TYR123      0.0417
     55  CE2       27.9510   42.1490  130.7830 C.ar  123  TYR123      0.0417
     56  CZ        27.8140   40.9060  131.3900 C.ar  123  TYR123      0.1957
     57  OH        26.6230   40.2160  131.2850 O.3   123  TYR123     -0.2866
     58  N         27.9690   38.2780  124.5990 N.3   126  PRO126     -0.2116
     59  CA        28.1150   37.5280  123.3510 C.3   126  PRO126      0.1372
     60  C         27.3640   38.0440  122.1380 C.2   126  PRO126      0.2244
     61  O         27.5290   37.5130  121.0420 O.2   126  PRO126     -0.2868
     62  CB        27.6470   36.1360  123.7510 C.3   126  PRO126      0.0268
     63  CG        26.4740   36.4740  124.6460 C.3   126  PRO126      0.0207
     64  CD        27.0360   37.5920  125.5150 C.3   126  PRO126      0.0892
     65  N         22.3240   42.2150  124.1500 N.3   130  TYR130     -0.1241
     66  CA        22.5950   42.3400  125.5760 C.3   130  TYR130      0.1605
     67  C         23.0970   43.7540  125.8870 C.2   130  TYR130      0.2264
     68  O         23.5380   44.0360  127.0020 O.2   130  TYR130     -0.2867
     69  CB        23.6310   41.3220  126.0460 C.3   130  TYR130      0.0534
     70  CG        23.0540   39.9530  126.2840 C.ar  130  TYR130     -0.0201
     71  CD1       23.2350   38.9260  125.3570 C.ar  130  TYR130     -0.0009
     72  CD2       22.3250   39.6800  127.4430 C.ar  130  TYR130     -0.0009
     73  CE1       22.7070   37.6600  125.5770 C.ar  130  TYR130      0.0417
     74  CE2       21.7880   38.4150  127.6760 C.ar  130  TYR130      0.0417
     75  CZ        21.9820   37.4120  126.7380 C.ar  130  TYR130      0.1957
     76  OH        21.4380   36.1710  126.9460 O.3   130  TYR130     -0.2866
     77  N         15.2860   36.4410  127.7790 N.3   141  ASP141     -0.1239
     78  CA        15.6800   35.5880  128.8850 C.3   141  ASP141      0.1674
     79  C         14.7750   35.7040  130.1030 C.2   141  ASP141      0.2266
     80  O         14.9870   35.0210  131.1010 O.2   141  ASP141     -0.2867
     81  CB        17.1140   35.9120  129.3020 C.3   141  ASP141      0.1410
     82  CG        17.3450   37.4040  129.4990 C.2   141  ASP141      0.3668
     83  OD1       16.3630   38.1710  129.4540 O.co2 141  ASP141     -0.2456
     84  OD2       18.5100   37.8110  129.7010 O.co2 141  ASP141     -0.2456
     85  N         16.8310   33.7430  124.6030 N.3   332  THR332     -0.1218
     86  CA        17.8880   34.7460  124.7020 C.3   332  THR332      0.1862
     87  C         18.2060   35.4570  123.3910 C.2   332  THR332      0.2287
     88  O         17.3570   36.1540  122.8460 O.2   332  THR332     -0.2866
     89  CB        19.1960   34.1330  125.2770 C.3   332  THR332      0.1770
     90  OG1       19.6230   33.0510  124.4510 O.3   332  THR332     -0.2211
     91  CG2       18.9660   33.6180  126.6970 C.3   332  THR332      0.0375
@<TRIPOS>BOND
     1    61    60    2
     2    60    59    1
     3    88    87    2
     4    59    62    1
     5    59    58    1
     6    87    86    1
     7    62    63    1
     8    65    66    1
     9    90    89    1
    10    58    64    1
    11    85    86    1
    12    63    64    1
    13    86    89    1
    14    89    91    1
    15    71    73   ar
    16    71    70   ar
    17    66    67    1
    18    66    69    1
    19    73    75   ar
    20    67    68    2
    21    69    70    1
    22    70    72   ar
    23    75    76    1
    24    75    74   ar
    25    72    74   ar
    26    18    19    1
    27    77    78    1
    28    16    15    1
    29    24    23   ar
    30    19    20    1
    31    19    22    1
    32    21    20    2
    33    78    81    1
    34    78    79    1
    35    49    48    2
    36    23    22    1
    37    23    25   ar
    38    81    82    1
    39    83    82   ar
    40    82    84   ar
    41    15    17    1
    42    15    12    1
    43    13    14    2
    44    13    12    1
    45    48    47    1
    46    79    80    2
    47    12    11    1
    48    55    53   ar
    49    55    56   ar
    50    53    51   ar
    51    11     9   am
    52    47    46    1
    53    47    50    1
    54    57    56    1
    55    26    27    1
    56    56    54   ar
    57    51    50    1
    58    51    52   ar
    59    27    28    1
    60    54    52   ar
    61     9     8    1
    62     9    10    2
    63    29    28    2
    64    28    30   am
    65     8     7    1
    66    30    31    1
    67    44    43    1
    68    45    43    1
    69     4     3    2
    70     7     3   am
    71    42    43    1
    72    42    39    1
    73    31    32    1
    74    31    34    1
    75     3     2    1
    76    38    39    1
    77    38    32   am
    78    39    40    1
    79    32    33    2
    80     1     2    1
    81    34    35    1
    82     2     5    1
    83    37    35   ar
    84    35    36   ar
    85    40    41    2
    86     5     6    1
