@<TRIPOS>MOLECULE
tmp/1rrwA00.pdb
 79 74 0 0 0
SMALL
GASTEIGER

@<TRIPOS>ATOM
      1  N         49.3670   51.6700   72.5140 N.3    18  ALA18      -0.1245
      2  CA        50.6390   52.1190   73.0610 C.3    18  ALA18       0.1562
      3  C         51.7080   52.4400   71.9990 C.2    18  ALA18       0.2260
      4  O         52.5800   53.2840   72.2230 O.2    18  ALA18      -0.2867
      5  CB        51.1610   51.0720   74.0480 C.3    18  ALA18       0.0290
      6  N         50.3230   52.0390   65.7120 N.3    22  GLU22      -0.1245
      7  CA        48.9500   51.6490   66.0200 C.3    22  GLU22       0.1567
      8  C         48.0100   52.8500   65.8740 C.2    22  GLU22       0.2260
      9  O         47.1020   52.8460   65.0430 O.2    22  GLU22      -0.2867
     10  CB        48.8660   51.1030   67.4530 C.3    22  GLU22       0.0388
     11  CG        48.6170   49.6010   67.5460 C.3    22  GLU22       0.1160
     12  CD        48.5160   49.0880   68.9760 C.2    22  GLU22       0.3649
     13  OE1       49.5000   49.2050   69.7340 O.co2  22  GLU22      -0.2457
     14  OE2       47.4470   48.5560   69.3380 O.co2  22  GLU22      -0.2457
     15  N         46.2030   55.0040   75.3880 N.3    71  ASN71      -0.1225
     16  CA        47.1500   53.9130   75.2380 C.3    71  ASN71       0.1785
     17  C         46.5840   52.5230   75.4810 C.2    71  ASN71       0.2597
     18  O         46.5970   51.6730   74.5830 O.2    71  ASN71      -0.2718
     19  CB        48.3390   54.0970   76.1830 C.3    71  ASN71       0.1169
     20  CG        49.1360   55.3520   75.8980 C.2    71  ASN71       0.2627
     21  OD1       49.4410   55.6740   74.7460 O.2    71  ASN71      -0.2716
     22  ND2       49.4880   56.0720   76.9610 N.am   71  ASN71      -0.0877
     23  N         46.1070   52.3040   76.7060 N.am   72  LEU72      -0.1966
     24  CA        45.5910   51.0170   77.1390 C.3    72  LEU72       0.1728
     25  C         44.0990   50.7670   76.9980 C.2    72  LEU72       0.2616
     26  O         43.2810   51.6800   77.0570 O.2    72  LEU72      -0.2715
     27  CB        45.9890   50.7780   78.6030 C.3    72  LEU72       0.0311
     28  CG        47.4280   51.0760   79.0310 C.3    72  LEU72       0.0022
     29  CD1       47.6840   50.5310   80.4390 C.3    72  LEU72       0.0001
     30  CD2       48.3790   50.4460   78.0360 C.3    72  LEU72       0.0001
     31  N         43.7600   49.4950   76.8210 N.am   73  LEU73      -0.1963
     32  CA        42.3700   49.0760   76.7130 C.3    73  LEU73       0.1728
     33  C         41.8240   49.1640   78.1280 C.2    73  LEU73       0.2616
     34  O         40.6270   49.3340   78.3250 O.2    73  LEU73      -0.2715
     35  CB        42.2710   47.6250   76.2180 C.3    73  LEU73       0.0311
     36  CG        42.6630   47.2700   74.7740 C.3    73  LEU73       0.0022
     37  CD1       42.4820   45.7640   74.5550 C.3    73  LEU73       0.0001
     38  CD2       41.8130   48.0810   73.7840 C.3    73  LEU73       0.0001
     39  N         42.7300   49.0440   79.1020 N.am   74  GLU74      -0.1977
     40  CA        42.4020   49.1060   80.5330 C.3    74  GLU74       0.1602
     41  C         41.8360   50.4720   80.8740 C.2    74  GLU74       0.2287
     42  O         40.9890   50.6110   81.7520 O.2    74  GLU74      -0.2864
     43  CB        43.6490   48.8650   81.3780 C.3    74  GLU74       0.0415
     44  CG        44.0570   47.4170   81.4690 C.3    74  GLU74       0.1163
     45  CD        44.9710   47.0080   80.3280 C.2    74  GLU74       0.3649
     46  OE1       44.9090   47.6470   79.2630 O.co2  74  GLU74      -0.2457
     47  OE2       45.7560   46.0490   80.4880 O.co2  74  GLU74      -0.2457
     48  N         41.0020   43.1080   71.1590 N.3   100  LYS100     -0.1245
     49  CA        41.7770   43.5600   70.0010 C.3   100  LYS100      0.1561
     50  C         41.9850   42.2880   69.1750 C.2   100  LYS100      0.2260
     51  O         42.9510   41.5530   69.3750 O.2   100  LYS100     -0.2867
     52  CB        43.1380   44.1060   70.4370 C.3   100  LYS100      0.0271
     53  CG        43.2820   45.6210   70.3840 C.3   100  LYS100      0.0035
     54  CD        44.5940   46.0590   71.0440 C.3   100  LYS100      0.0206
     55  CE        44.6760   47.5650   71.2290 C.3   100  LYS100      0.1093
     56  NZ        46.0720   48.0780   71.3450 N.3   100  LYS100     -0.1314
     57  N         49.1100   44.2700   66.7990 N.3   104  PRO104     -0.2102
     58  CA        50.3980   44.1780   66.1070 C.3   104  PRO104      0.1504
     59  C         51.2310   42.9700   66.5460 C.2   104  PRO104      0.2575
     60  O         52.4580   43.0260   66.5060 O.2   104  PRO104     -0.2718
     61  CB        51.0970   45.4880   66.4740 C.3   104  PRO104      0.0282
     62  CG        50.0140   46.3790   66.9700 C.3   104  PRO104      0.0208
     63  CD        49.0550   45.4640   67.6520 C.3   104  PRO104      0.0893
     64  N         50.5730   41.8890   66.9640 N.am  105  ILE105     -0.1980
     65  CA        51.2720   40.6810   67.4120 C.3   105  ILE105      0.1595
     66  C         51.4380   39.6370   66.2980 C.2   105  ILE105      0.2287
     67  O         50.4600   39.1040   65.7810 O.2   105  ILE105     -0.2864
     68  CB        50.5300   40.0240   68.5980 C.3   105  ILE105      0.0276
     69  CG1       50.6090   40.9310   69.8240 C.3   105  ILE105      0.0022
     70  CG2       51.1360   38.6710   68.9270 C.3   105  ILE105      0.0022
     71  CD1       49.7430   40.4610   70.9630 C.3   105  ILE105      0.0001
     72  N         41.0680   42.4480   77.4550 N.3   114  ILE114     -0.1245
     73  CA        40.9420   42.5450   78.8930 C.3   114  ILE114      0.1561
     74  C         39.4680   42.5700   79.2470 C.2   114  ILE114      0.2260
     75  O         38.6130   42.7440   78.3810 O.2   114  ILE114     -0.2867
     76  CB        41.6230   43.8380   79.4280 C.3   114  ILE114      0.0252
     77  CG1       41.0440   45.0700   78.7340 C.3   114  ILE114      0.0019
     78  CG2       43.1130   43.7900   79.1500 C.3   114  ILE114      0.0019
     79  CD1       40.2520   45.9810   79.6380 C.3   114  ILE114      0.0001
@<TRIPOS>BOND
     1     9     8    2
     2     6     7    1
     3    67    66    2
     4     8     7    1
     5     7    10    1
     6    58    61    1
     7    58    59    1
     8    58    57    1
     9    66    65    1
    10    61    62    1
    11    60    59    2
    12    59    64   am
    13    57    63    1
    14    64    65    1
    15    62    63    1
    16    65    68    1
    17    10    11    1
    18    11    12    1
    19    68    70    1
    20    68    69    1
    21    12    14   ar
    22    12    13   ar
    23    50    51    2
    24    50    49    1
    25    69    71    1
    26    49    52    1
    27    49    48    1
    28    53    52    1
    29    53    54    1
    30    54    55    1
    31    55    56    1
    32     3     4    2
    33     3     2    1
    34     1     2    1
    35     2     5    1
    36    38    36    1
    37    37    36    1
    38    18    17    2
    39    21    20    2
    40    36    35    1
    41    16    15    1
    42    16    17    1
    43    16    19    1
    44    17    23   am
    45    20    19    1
    46    20    22   am
    47    35    32    1
    48    23    24    1
    49    32    31    1
    50    32    33    1
    51    31    25   am
    52    25    26    2
    53    25    24    1
    54    24    27    1
    55    72    73    1
    56    30    28    1
    57    33    34    2
    58    33    39   am
    59    75    74    2
    60    27    28    1
    61    77    76    1
    62    77    79    1
    63    73    74    1
    64    73    76    1
    65    28    29    1
    66    39    40    1
    67    78    76    1
    68    46    45   ar
    69    45    47   ar
    70    45    44    1
    71    40    41    1
    72    40    43    1
    73    41    42    2
    74    43    44    1
