@<TRIPOS>MOLECULE
tmp/1rryA00.pdb
 94 90 0 0 0
SMALL
GASTEIGER

@<TRIPOS>ATOM
      1  N         49.3350   51.2300   72.4900 N.3    18  ALA18      -0.1231
      2  CA        50.6290   51.5420   73.0910 C.3    18  ALA18       0.1694
      3  C         51.7540   51.7330   72.0640 C.2    18  ALA18       0.2591
      4  O         52.8740   52.1160   72.4130 O.2    18  ALA18      -0.2718
      5  CB        51.0120   50.4550   74.0940 C.3    18  ALA18       0.0304
      6  N         51.4580   51.4670   70.7990 N.am   19  LEU19      -0.1980
      7  CA        52.4490   51.6400   69.7450 C.3    19  LEU19       0.1596
      8  C         52.0640   52.8690   68.9210 C.2    19  LEU19       0.2287
      9  O         50.8840   53.0790   68.6260 O.2    19  LEU19      -0.2864
     10  CB        52.4960   50.3870   68.8630 C.3    19  LEU19       0.0297
     11  CG        53.4410   50.3260   67.6570 C.3    19  LEU19       0.0022
     12  CD1       54.7020   51.1560   67.8960 C.3    19  LEU19       0.0001
     13  CD2       53.8030   48.8730   67.4050 C.3    19  LEU19       0.0001
     14  N         50.2080   52.1310   65.8500 N.3    22  GLU22      -0.1245
     15  CA        48.8610   51.6590   66.1330 C.3    22  GLU22       0.1567
     16  C         47.9150   52.8410   66.0440 C.2    22  GLU22       0.2260
     17  O         46.9300   52.8180   65.3040 O.2    22  GLU22      -0.2867
     18  CB        48.8080   51.0660   67.5340 C.3    22  GLU22       0.0388
     19  CG        48.3360   49.6330   67.5800 C.3    22  GLU22       0.1160
     20  CD        48.4550   49.0280   68.9620 C.2    22  GLU22       0.3649
     21  OE1       49.2560   49.5440   69.7630 O.co2  22  GLU22      -0.2457
     22  OE2       47.7520   48.0390   69.2500 O.co2  22  GLU22      -0.2457
     23  N         46.0850   54.9880   75.4980 N.3    71  ASN71      -0.1225
     24  CA        47.0880   53.9580   75.2980 C.3    71  ASN71       0.1785
     25  C         46.5530   52.5510   75.5340 C.2    71  ASN71       0.2597
     26  O         46.6160   51.6930   74.6490 O.2    71  ASN71      -0.2718
     27  CB        48.2850   54.1810   76.2360 C.3    71  ASN71       0.1169
     28  CG        49.2590   55.2460   75.7340 C.2    71  ASN71       0.2627
     29  OD1       49.6260   55.2820   74.5560 O.2    71  ASN71      -0.2716
     30  ND2       49.6920   56.1140   76.6430 N.am   71  ASN71      -0.0877
     31  N         46.0240   52.3210   76.7310 N.am   72  LEU72      -0.1966
     32  CA        45.5480   50.9990   77.1050 C.3    72  LEU72       0.1728
     33  C         44.0590   50.7000   77.0400 C.2    72  LEU72       0.2616
     34  O         43.1990   51.5470   77.2880 O.2    72  LEU72      -0.2715
     35  CB        46.0430   50.6610   78.5060 C.3    72  LEU72       0.0311
     36  CG        47.5160   50.9410   78.7820 C.3    72  LEU72       0.0022
     37  CD1       47.8470   50.5270   80.2060 C.3    72  LEU72       0.0001
     38  CD2       48.3700   50.1870   77.7820 C.3    72  LEU72       0.0001
     39  N         43.7770   49.4480   76.7090 N.am   73  LEU73      -0.1963
     40  CA        42.4190   48.9520   76.6440 C.3    73  LEU73       0.1728
     41  C         41.8610   49.0760   78.0590 C.2    73  LEU73       0.2616
     42  O         40.6650   49.2360   78.2430 O.2    73  LEU73      -0.2715
     43  CB        42.4320   47.4840   76.2150 C.3    73  LEU73       0.0311
     44  CG        42.9800   47.1310   74.8290 C.3    73  LEU73       0.0022
     45  CD1       42.5860   45.6830   74.4960 C.3    73  LEU73       0.0001
     46  CD2       42.4160   48.1090   73.7760 C.3    73  LEU73       0.0001
     47  N         42.7530   49.0000   79.0470 N.am   74  GLU74      -0.1977
     48  CA        42.3850   49.0980   80.4620 C.3    74  GLU74       0.1602
     49  C         41.8040   50.4580   80.7860 C.2    74  GLU74       0.2287
     50  O         40.9360   50.5910   81.6550 O.2    74  GLU74      -0.2864
     51  CB        43.6050   48.8840   81.3640 C.3    74  GLU74       0.0415
     52  CG        44.0080   47.4460   81.5550 C.3    74  GLU74       0.1163
     53  CD        44.9350   46.9800   80.4540 C.2    74  GLU74       0.3649
     54  OE1       44.9220   47.6090   79.3780 O.co2  74  GLU74      -0.2457
     55  OE2       45.6770   45.9970   80.6540 O.co2  74  GLU74      -0.2457
     56  N         40.9250   43.1200   70.9930 N.3   100  LYS100     -0.1245
     57  CA        41.6690   43.5790   69.8350 C.3   100  LYS100      0.1561
     58  C         41.9240   42.2740   69.1010 C.2   100  LYS100      0.2260
     59  O         42.8710   41.5540   69.3880 O.2   100  LYS100     -0.2867
     60  CB        42.9910   44.2140   70.2530 C.3   100  LYS100      0.0271
     61  CG        43.0320   45.7280   70.1310 C.3   100  LYS100      0.0035
     62  CD        44.2160   46.2890   70.9020 C.3   100  LYS100      0.0206
     63  CE        44.4860   47.7450   70.5650 C.3   100  LYS100      0.1093
     64  NZ        45.7300   48.2790   71.2070 N.3   100  LYS100     -0.1314
     65  N         45.7910   42.8450   66.8900 N.3   103  PRO103     -0.2103
     66  CA        46.8480   43.7400   67.3840 C.3   103  PRO103      0.1489
     67  C         48.1930   43.5620   66.6610 C.2   103  PRO103      0.2418
     68  O         48.3300   42.7260   65.7660 O.2   103  PRO103     -0.2734
     69  CB        46.9510   43.3630   68.8530 C.3   103  PRO103      0.0282
     70  CG        46.6340   41.9000   68.8450 C.3   103  PRO103      0.0208
     71  CD        45.5750   41.7040   67.7930 C.3   103  PRO103      0.0893
     72  N         49.1950   44.3800   67.0230 N.am  104  PRO104     -0.2718
     73  CA        50.5280   44.3020   66.4170 C.3   104  PRO104      0.1535
     74  C         51.3430   43.1450   67.0070 C.2   104  PRO104      0.2598
     75  O         52.4440   43.3440   67.5200 O.2   104  PRO104     -0.2715
     76  CB        51.1590   45.6570   66.7460 C.3   104  PRO104      0.0310
     77  CG        50.0820   46.4640   67.4290 C.3   104  PRO104      0.0237
     78  CD        49.1150   45.4840   67.9890 C.3   104  PRO104      0.0939
     79  N         50.7820   41.9420   66.9350 N.am  105  ILE105     -0.1978
     80  CA        51.4250   40.7370   67.4480 C.3   105  ILE105      0.1596
     81  C         51.5440   39.6650   66.3540 C.2   105  ILE105      0.2287
     82  O         50.5460   39.0640   65.9490 O.2   105  ILE105     -0.2864
     83  CB        50.6210   40.1620   68.6320 C.3   105  ILE105      0.0276
     84  CG1       50.5790   41.1950   69.7600 C.3   105  ILE105      0.0022
     85  CG2       51.2350   38.8370   69.1100 C.3   105  ILE105      0.0022
     86  CD1       49.3370   41.1200   70.6170 C.3   105  ILE105      0.0001
     87  N         41.1800   42.4280   77.4010 N.3   114  ILE114     -0.1245
     88  CA        41.0490   42.5100   78.8370 C.3   114  ILE114      0.1561
     89  C         39.5780   42.5720   79.2190 C.2   114  ILE114      0.2260
     90  O         38.7080   42.7910   78.3740 O.2   114  ILE114     -0.2867
     91  CB        41.7930   43.7610   79.3910 C.3   114  ILE114      0.0252
     92  CG1       41.1850   45.0400   78.8180 C.3   114  ILE114      0.0019
     93  CG2       43.2640   43.6930   79.0250 C.3   114  ILE114      0.0019
     94  CD1       40.5220   45.9110   79.8670 C.3   114  ILE114      0.0001
@<TRIPOS>BOND
     1    17    16    2
     2    68    67    2
     3    14    15    1
     4    82    81    2
     5    16    15    1
     6    15    18    1
     7    81    80    1
     8    73    76    1
     9    73    74    1
    10    73    72    1
    11    67    72   am
    12    67    66    1
    13    76    77    1
    14    65    66    1
    15    65    71    1
    16    79    74   am
    17    79    80    1
    18    74    75    2
    19    72    78    1
    20    66    69    1
    21    13    11    1
    22    77    78    1
    23    80    83    1
    24    18    19    1
    25    19    20    1
    26    11    12    1
    27    11    10    1
    28    71    70    1
    29     9     8    2
    30    83    85    1
    31    83    84    1
    32    70    69    1
    33    10     7    1
    34     8     7    1
    35    20    22   ar
    36    20    21   ar
    37    58    59    2
    38    58    57    1
    39     7     6    1
    40    84    86    1
    41    57    60    1
    42    57    56    1
    43    61    60    1
    44    61    62    1
    45    63    62    1
    46    63    64    1
    47     6     3   am
    48     3     4    2
    49     3     2    1
    50     1     2    1
    51     2     5    1
    52    46    44    1
    53    45    44    1
    54    29    28    2
    55    26    25    2
    56    44    43    1
    57    24    23    1
    58    24    25    1
    59    24    27    1
    60    25    31   am
    61    28    27    1
    62    28    30   am
    63    43    40    1
    64    40    39    1
    65    40    41    1
    66    39    33   am
    67    31    32    1
    68    33    32    1
    69    33    34    2
    70    32    35    1
    71    87    88    1
    72    38    36    1
    73    41    42    2
    74    41    47   am
    75    90    89    2
    76    35    36    1
    77    36    37    1
    78    92    91    1
    79    92    94    1
    80    88    89    1
    81    88    91    1
    82    93    91    1
    83    47    48    1
    84    54    53   ar
    85    53    55   ar
    86    53    52    1
    87    48    49    1
    88    48    51    1
    89    49    50    2
    90    51    52    1
