@<TRIPOS>MOLECULE
tmp/1rs0A00.pdb
 132 128 0 0 0
SMALL
GASTEIGER

@<TRIPOS>ATOM
      1  N          6.6470   43.5040    0.4660 N.3   233  GLU233     -0.1231
      2  CA         5.5100   42.6580    0.1410 C.3   233  GLU233      0.1699
      3  C          4.3850   43.4180   -0.5810 C.2   233  GLU233      0.2593
      4  O          4.1910   44.6280   -0.4040 O.2   233  GLU233     -0.2718
      5  CB         4.9780   41.9990    1.4260 C.3   233  GLU233      0.0402
      6  CG         3.9130   40.9470    1.1700 C.3   233  GLU233      0.1161
      7  CD         4.1560   39.6660    1.9630 C.2   233  GLU233      0.3649
      8  OE1        4.0240   38.5650    1.3780 O.co2 233  GLU233     -0.2457
      9  OE2        4.4640   39.7580    3.1760 O.co2 233  GLU233     -0.2457
     10  N          3.6520   42.6800   -1.3990 N.am  234  SER234     -0.1938
     11  CA         2.5390   43.2340   -2.1460 C.3   234  SER234      0.2055
     12  C          1.3140   42.3270   -1.9920 C.2   234  SER234      0.2643
     13  O          1.4040   41.1020   -2.1490 O.2   234  SER234     -0.2714
     14  CB         2.9300   43.3760   -3.6240 C.3   234  SER234      0.2130
     15  OG         1.8850   43.9870   -4.3670 O.3   234  SER234     -0.2179
     16  N          0.1760   42.9310   -1.6670 N.am  235  CYS235     -0.1967
     17  CA        -1.0660   42.1760   -1.4980 C.3   235  CYS235      0.1712
     18  C         -2.2770   42.9680   -1.9820 C.2   235  CYS235      0.2296
     19  O         -2.2260   44.1930   -2.1360 O.2   235  CYS235     -0.2864
     20  CB        -1.2630   41.7900   -0.0230 C.3   235  CYS235      0.0983
     21  SG        -0.3050   40.3350    0.4990 S.3   235  CYS235     -0.0798
     22  N         -1.5830   36.7640    6.4770 N.3   250  HIS250     -0.1241
     23  CA        -0.1860   36.4620    6.1990 C.3   250  HIS250      0.1621
     24  C          0.5300   37.5210    5.3840 C.2   250  HIS250      0.2264
     25  O          1.7190   37.3910    5.0920 O.2   250  HIS250     -0.2867
     26  CB        -0.0370   35.0960    5.5280 C.3   250  HIS250      0.0745
     27  CG        -0.1900   35.1190    4.0400 C.ar  250  HIS250      0.0817
     28  ND1       -1.3940   34.8960    3.4120 N.ar  250  HIS250     -0.2268
     29  CD2        0.7250   35.2850    3.0550 C.ar  250  HIS250      0.1154
     30  CE1       -1.2170   34.9180    2.1020 C.ar  250  HIS250      0.1986
     31  NE2        0.0590   35.1520    1.8600 N.ar  250  HIS250     -0.2212
     32  N         -2.4350   28.3790    7.3040 N.3   297  TYR297     -0.1241
     33  CA        -3.2720   29.4950    6.8710 C.3   297  TYR297      0.1605
     34  C         -4.7180   29.4920    7.3200 C.2   297  TYR297      0.2264
     35  O         -5.5460   30.1870    6.7450 O.2   297  TYR297     -0.2867
     36  CB        -3.2090   29.6430    5.3490 C.3   297  TYR297      0.0534
     37  CG        -1.8210   29.9920    4.8410 C.ar  297  TYR297     -0.0201
     38  CD1       -0.9460   28.9960    4.3760 C.ar  297  TYR297     -0.0009
     39  CD2       -1.3690   31.3150    4.8530 C.ar  297  TYR297     -0.0009
     40  CE1        0.3400   29.3140    3.9400 C.ar  297  TYR297      0.0417
     41  CE2       -0.0880   31.6400    4.4230 C.ar  297  TYR297      0.0417
     42  CZ         0.7580   30.6390    3.9680 C.ar  297  TYR297      0.1957
     43  OH         2.0240   30.9750    3.5510 O.3   297  TYR297     -0.2866
     44  N         -4.0130   31.9580   -9.0940 N.3   418  THR418     -0.1203
     45  CA        -3.5880   33.1990   -8.4590 C.3   418  THR418      0.1994
     46  C         -2.0670   33.2770   -8.4760 C.2   418  THR418      0.2618
     47  O         -1.3990   32.2510   -8.4560 O.2   418  THR418     -0.2717
     48  CB        -4.0910   33.2780   -7.0050 C.3   418  THR418      0.1784
     49  OG1       -3.5590   32.1860   -6.2420 O.3   418  THR418     -0.2211
     50  CG2       -5.6020   33.2000   -6.9730 C.3   418  THR418      0.0376
     51  N         -1.5240   34.4880   -8.5330 N.am  419  CYS419     -0.1955
     52  CA        -0.0750   34.6960   -8.5670 C.3   419  CYS419      0.1843
     53  C          0.3330   35.4610   -7.3170 C.2   419  CYS419      0.2625
     54  O         -0.5220   35.9900   -6.6060 O.2   419  CYS419     -0.2714
     55  CB         0.3300   35.5130   -9.8030 C.3   419  CYS419      0.0997
     56  SG         0.1210   34.7190  -11.4350 S.3   419  CYS419     -0.0797
     57  N          1.6310   35.5340   -7.0460 N.am  420  ARG420     -0.1963
     58  CA         2.0920   36.2650   -5.8700 C.3   420  ARG420      0.1729
     59  C          1.6840   37.7250   -6.0530 C.2   420  ARG420      0.2616
     60  O          2.0950   38.3840   -7.0130 O.2   420  ARG420     -0.2715
     61  CB         3.6150   36.1390   -5.7240 C.3   420  ARG420      0.0348
     62  CG         3.9660   34.7720   -5.1970 C.3   420  ARG420      0.0492
     63  CD         3.7560   34.6680   -3.7040 C.3   420  ARG420      0.2205
     64  NE         4.4270   35.7070   -2.9390 N.pl3 420  ARG420     -0.0865
     65  CZ         3.8000   36.5840   -2.1530 C.cat 420  ARG420      0.5346
     66  NH1        2.4670   36.5800   -2.0320 N.pl3 420  ARG420      0.1354
     67  NH2        4.5430   37.5020   -1.5100 N.pl3 420  ARG420      0.1354
     68  N          0.8560   38.2190   -5.1430 N.am  421  GLY421     -0.1955
     69  CA         0.4060   39.5900   -5.2350 C.3   421  GLY421      0.1869
     70  C         -1.0990   39.5690   -5.1780 C.2   421  GLY421      0.2309
     71  O         -1.7150   40.5710   -4.8420 O.2   421  GLY421     -0.2863
     72  N         -2.7030   37.4840   -3.1990 N.3   423  SER423     -0.1217
     73  CA        -3.0240   37.1500   -1.8130 C.3   423  SER423      0.1889
     74  C         -3.8360   38.2410   -1.1380 C.2   423  SER423      0.2288
     75  O         -3.3590   39.3940   -1.0780 O.2   423  SER423     -0.2866
     76  CB        -1.7330   36.9570   -1.0100 C.3   423  SER423      0.2089
     77  OG        -1.2320   35.6560   -1.1950 O.3   423  SER423     -0.2183
     78  N         -8.4550   35.2520   -1.1350 N.3   441  ILE441     -0.1231
     79  CA        -7.3550   34.4580   -1.6670 C.3   441  ILE441      0.1692
     80  C         -6.2910   34.2620   -0.5970 C.2   441  ILE441      0.2593
     81  O         -5.6950   35.2220   -0.1140 O.2   441  ILE441     -0.2718
     82  CB        -6.7260   35.1440   -2.8920 C.3   441  ILE441      0.0266
     83  CG1       -7.7760   35.2670   -4.0050 C.3   441  ILE441      0.0019
     84  CG2       -5.5160   34.3530   -3.3550 C.3   441  ILE441      0.0020
     85  CD1       -7.3730   36.1790   -5.1530 C.3   441  ILE441      0.0001
     86  N         -6.0410   33.0080   -0.2450 N.am  442  SER442     -0.1938
     87  CA        -5.0770   32.6980    0.7980 C.3   442  SER442      0.2055
     88  C         -3.7780   32.0480    0.3250 C.2   442  SER442      0.2643
     89  O         -2.7090   32.6350    0.4560 O.2   442  SER442     -0.2714
     90  CB        -5.7450   31.8200    1.8610 C.3   442  SER442      0.2130
     91  OG        -4.8910   31.6170    2.9690 O.3   442  SER442     -0.2179
     92  N         -3.8540   30.8350   -0.2090 N.am  443  TRP443     -0.1959
     93  CA        -2.6380   30.1590   -0.6580 C.3   443  TRP443      0.1771
     94  C         -2.8860   29.1830   -1.7870 C.2   443  TRP443      0.2620
     95  O         -4.0200   28.7860   -2.0440 O.2   443  TRP443     -0.2715
     96  CB        -1.9650   29.4260    0.5110 C.3   443  TRP443      0.0590
     97  CG        -2.8080   28.3440    1.1330 C.ar  443  TRP443      0.0006
     98  CD1       -3.8440   28.5050    2.0150 C.ar  443  TRP443      0.0946
     99  CD2       -2.6890   26.9340    0.9110 C.ar  443  TRP443      0.0152
    100  NE1       -4.3760   27.2840    2.3520 N.ar  443  TRP443     -0.2442
    101  CE2       -3.6910   26.3030    1.6840 C.ar  443  TRP443      0.0810
    102  CE3       -1.8410   26.1420    0.1230 C.ar  443  TRP443      0.0012
    103  CZ2       -3.8550   24.9120    1.7060 C.ar  443  TRP443      0.0191
    104  CZ3       -2.0070   24.7630    0.1450 C.ar  443  TRP443      0.0001
    105  CH2       -3.0120   24.1640    0.9290 C.ar  443  TRP443      0.0015
    106  N         -1.8120   28.7890   -2.4560 N.am  444  GLY444     -0.1954
    107  CA        -1.9470   27.8540   -3.5580 C.3   444  GLY444      0.1869
    108  C         -1.0510   26.6290   -3.4980 C.2   444  GLY444      0.2309
    109  O         -0.0550   26.6020   -2.7790 O.2   444  GLY444     -0.2863
    110  N          0.4580   25.2380   -6.3320 N.3   446  VAL446     -0.1231
    111  CA         1.5860   25.4340   -7.2510 C.3   446  VAL446      0.1692
    112  C          1.8490   26.8850   -7.6590 C.2   446  VAL446      0.2592
    113  O          0.9130   27.6550   -7.8620 O.2   446  VAL446     -0.2718
    114  CB         1.3810   24.6320   -8.5670 C.3   446  VAL446      0.0266
    115  CG1        2.6070   24.7770   -9.4550 C.3   446  VAL446      0.0020
    116  CG2        1.0920   23.1710   -8.2570 C.3   446  VAL446      0.0020
    117  N          3.1260   27.2410   -7.7940 N.am  447  ASP447     -0.1974
    118  CA         3.5270   28.5850   -8.2220 C.3   447  ASP447      0.1709
    119  C          3.6000   28.5830   -9.7490 C.2   447  ASP447      0.2293
    120  O          4.6350   28.2440  -10.3310 O.2   447  ASP447     -0.2864
    121  CB         4.8970   28.9570   -7.6390 C.3   447  ASP447      0.1436
    122  CG         5.5430   30.1500   -8.3560 C.2   447  ASP447      0.3671
    123  OD1        6.0770   29.9630   -9.4750 O.co2 447  ASP447     -0.2456
    124  OD2        5.5180   31.2800   -7.8060 O.co2 447  ASP447     -0.2456
    125  N         -5.9370   26.3260   -5.6910 N.3   456  ASP456     -0.1239
    126  CA        -5.8650   27.5480   -4.8980 C.3   456  ASP456      0.1674
    127  C         -6.8780   27.4450   -3.7780 C.2   456  ASP456      0.2266
    128  O         -7.9900   26.9340   -3.9750 O.2   456  ASP456     -0.2867
    129  CB        -6.1820   28.7840   -5.7300 C.3   456  ASP456      0.1410
    130  CG        -5.0320   29.2110   -6.5810 C.2   456  ASP456      0.3668
    131  OD1       -3.9000   29.2140   -6.0620 O.co2 456  ASP456     -0.2456
    132  OD2       -5.2500   29.5540   -7.7630 O.co2 456  ASP456     -0.2456
@<TRIPOS>BOND
     1    56    55    1
     2   120   119    2
     3    55    52    1
     4   119   118    1
     5   123   122   ar
     6   115   114    1
     7    44    45    1
     8    52    51    1
     9    52    53    1
    10   114   116    1
    11   114   111    1
    12    51    46   am
    13    46    45    1
    14    46    47    2
    15    45    48    1
    16   122   124   ar
    17   122   121    1
    18   118   117    1
    19   118   121    1
    20   113   112    2
    21   117   112   am
    22   132   130   ar
    23   112   111    1
    24    53    57   am
    25    53    54    2
    26   111   110    1
    27    57    58    1
    28    60    59    2
    29    48    50    1
    30    48    49    1
    31   130   131   ar
    32   130   129    1
    33    59    58    1
    34    59    68   am
    35    58    61    1
    36   129   126    1
    37    61    62    1
    38   125   126    1
    39    69    70    1
    40    69    68    1
    41    62    63    1
    42    70    71    2
    43    85    83    1
    44   126   127    1
    45    15    14    1
    46    83    82    1
    47   128   127    2
    48    63    64    1
    49    14    11    1
    50   107   108    1
    51   107   106    1
    52   108   109    2
    53    84    82    1
    54    72    73    1
    55    64    65    2
    56    82    79    1
    57   106    94   am
    58    65    66    1
    59    65    67    1
    60    13    12    2
    61    11    12    1
    62    11    10    1
    63    19    18    2
    64    95    94    2
    65    12    16   am
    66    18    17    1
    67    73    74    1
    68    73    76    1
    69    94    93    1
    70    16    17    1
    71    79    78    1
    72    79    80    1
    73    17    20    1
    74    10     3   am
    75    77    76    1
    76    74    75    2
    77    93    92    1
    78    93    96    1
    79    80    86   am
    80    80    81    2
    81     3     4    2
    82     3     2    1
    83    86    87    1
    84    92    88   am
    85    20    21    1
    86   102   104   ar
    87   102    99   ar
    88     2     1    1
    89     2     5    1
    90   104   105   ar
    91    88    89    2
    92    88    87    1
    93    96    97    1
    94    87    90    1
    95    99    97   ar
    96    99   101   ar
    97   105   103   ar
    98    97    98   ar
    99     6     5    1
   100     6     7    1
   101     8     7   ar
   102   101   103   ar
   103   101   100   ar
   104    31    30   ar
   105    31    29   ar
   106    90    91    1
   107     7     9   ar
   108    98   100   ar
   109    30    28   ar
   110    29    27   ar
   111    28    27   ar
   112    43    42    1
   113    40    42   ar
   114    40    38   ar
   115    42    41   ar
   116    27    26    1
   117    38    37   ar
   118    41    39   ar
   119    37    39   ar
   120    37    36    1
   121    25    24    2
   122    36    33    1
   123    24    23    1
   124    26    23    1
   125    23    22    1
   126    35    34    2
   127    33    32    1
   128    33    34    1
