@<TRIPOS>MOLECULE
tmp/1rs2A00.pdb
 101 97 0 0 0
SMALL
GASTEIGER

@<TRIPOS>ATOM
      1  N         43.4500   53.7440   69.2600 N.3    16  HIS16      -0.1226
      2  CA        44.1350   53.5420   70.5210 C.3    16  HIS16       0.1752
      3  C         45.2670   52.5400   70.3520 C.2    16  HIS16       0.2597
      4  O         45.2260   51.6600   69.4870 O.2    16  HIS16      -0.2718
      5  CB        43.1500   53.0660   71.5890 C.3    16  HIS16       0.0759
      6  CG        41.8210   53.7540   71.5300 C.ar   16  HIS16       0.0818
      7  ND1       41.6180   55.0240   72.0250 N.ar   16  HIS16      -0.2268
      8  CD2       40.6400   53.3590   71.0100 C.ar   16  HIS16       0.1154
      9  CE1       40.3640   55.3800   71.8150 C.ar   16  HIS16       0.1986
     10  NE2       39.7480   54.3860   71.1990 N.ar   16  HIS16      -0.2212
     11  N         46.2910   52.6890   71.1830 N.am   17  GLY17      -0.1942
     12  CA        47.4280   51.7950   71.1170 C.3    17  GLY17       0.2014
     13  C         48.6980   52.4380   71.6280 C.2    17  GLY17       0.2639
     14  O         48.8980   53.6420   71.4650 O.2    17  GLY17      -0.2714
     15  N         49.5510   51.6200   72.2430 N.am   18  ALA18      -0.1963
     16  CA        50.8230   52.0620   72.8140 C.3    18  ALA18       0.1728
     17  C         51.8930   52.3190   71.7510 C.2    18  ALA18       0.2616
     18  O         52.8200   53.1000   71.9650 O.2    18  ALA18      -0.2715
     19  CB        51.3240   51.0260   73.8200 C.3    18  ALA18       0.0334
     20  N         51.7570   51.6550   70.6070 N.am   19  LEU19      -0.1977
     21  CA        52.6960   51.8110   69.5030 C.3    19  LEU19       0.1596
     22  C         52.2310   52.9830   68.6280 C.2    19  LEU19       0.2287
     23  O         51.0630   53.0570   68.2390 O.2    19  LEU19      -0.2864
     24  CB        52.7520   50.5070   68.6930 C.3    19  LEU19       0.0297
     25  CG        53.4880   50.4460   67.3520 C.3    19  LEU19       0.0022
     26  CD1       54.8330   51.1520   67.4480 C.3    19  LEU19       0.0001
     27  CD2       53.6830   48.9880   66.9560 C.3    19  LEU19       0.0001
     28  N         50.2290   52.2380   65.7540 N.3    22  GLU22      -0.1245
     29  CA        48.8770   51.8110   66.0760 C.3    22  GLU22       0.1567
     30  C         47.9410   53.0150   66.0220 C.2    22  GLU22       0.2260
     31  O         46.9000   52.9790   65.3740 O.2    22  GLU22      -0.2867
     32  CB        48.8460   51.1770   67.4690 C.3    22  GLU22       0.0388
     33  CG        48.7300   49.6660   67.4400 C.3    22  GLU22       0.1160
     34  CD        48.7290   49.0280   68.8240 C.2    22  GLU22       0.3649
     35  OE1       49.4830   49.4910   69.7050 O.co2  22  GLU22      -0.2457
     36  OE2       47.9800   48.0500   69.0250 O.co2  22  GLU22      -0.2457
     37  N         46.3180   54.9450   75.3000 N.3    71  ASN71      -0.1225
     38  CA        47.2980   53.8720   75.2160 C.3    71  ASN71       0.1785
     39  C         46.7530   52.4700   75.4640 C.2    71  ASN71       0.2597
     40  O         46.8800   51.5850   74.6130 O.2    71  ASN71      -0.2718
     41  CB        48.4430   54.1230   76.2060 C.3    71  ASN71       0.1169
     42  CG        49.3250   55.3100   75.8160 C.2    71  ASN71       0.2627
     43  OD1       49.4790   55.6390   74.6350 O.2    71  ASN71      -0.2716
     44  ND2       49.9120   55.9570   76.8190 N.am   71  ASN71      -0.0877
     45  N         46.1410   52.2660   76.6250 N.am   72  LEU72      -0.1966
     46  CA        45.6550   50.9460   76.9810 C.3    72  LEU72       0.1728
     47  C         44.1650   50.6630   76.9070 C.2    72  LEU72       0.2616
     48  O         43.3230   51.5570   76.9680 O.2    72  LEU72      -0.2715
     49  CB        46.1580   50.5900   78.3800 C.3    72  LEU72       0.0311
     50  CG        47.5900   51.0490   78.6390 C.3    72  LEU72       0.0022
     51  CD1       47.9930   50.8210   80.0850 C.3    72  LEU72       0.0001
     52  CD2       48.4880   50.2940   77.7090 C.3    72  LEU72       0.0001
     53  N         43.8690   49.3740   76.7720 N.am   73  LEU73      -0.1963
     54  CA        42.5140   48.8700   76.7200 C.3    73  LEU73       0.1728
     55  C         41.9330   49.0690   78.1090 C.2    73  LEU73       0.2616
     56  O         40.7510   49.3430   78.2550 O.2    73  LEU73      -0.2715
     57  CB        42.5320   47.3770   76.3690 C.3    73  LEU73       0.0311
     58  CG        42.8700   46.9230   74.9400 C.3    73  LEU73       0.0022
     59  CD1       42.4280   45.4660   74.7320 C.3    73  LEU73       0.0001
     60  CD2       42.1710   47.8400   73.9370 C.3    73  LEU73       0.0001
     61  N         42.7850   48.9310   79.1260 N.am   74  GLU74      -0.1977
     62  CA        42.3850   49.0880   80.5260 C.3    74  GLU74       0.1602
     63  C         41.8650   50.4820   80.8110 C.2    74  GLU74       0.2287
     64  O         41.0660   50.6710   81.7310 O.2    74  GLU74      -0.2864
     65  CB        43.5590   48.8050   81.4650 C.3    74  GLU74       0.0415
     66  CG        43.9340   47.3520   81.5780 C.3    74  GLU74       0.1163
     67  CD        44.8840   46.9170   80.4780 C.2    74  GLU74       0.3649
     68  OE1       44.8220   47.4930   79.3760 O.co2  74  GLU74      -0.2457
     69  OE2       45.6920   45.9950   80.7040 O.co2  74  GLU74      -0.2457
     70  N         40.9880   42.9630   71.0100 N.3   100  LYS100     -0.1245
     71  CA        41.7430   43.4730   69.8810 C.3   100  LYS100      0.1561
     72  C         42.0060   42.2080   69.0650 C.2   100  LYS100      0.2260
     73  O         42.9420   41.4510   69.3490 O.2   100  LYS100     -0.2867
     74  CB        43.0610   44.0700   70.3510 C.3   100  LYS100      0.0271
     75  CG        43.1620   45.5700   70.2050 C.3   100  LYS100      0.0035
     76  CD        44.3650   46.0740   70.9800 C.3   100  LYS100      0.0206
     77  CE        44.6840   47.5200   70.6700 C.3   100  LYS100      0.1093
     78  NZ        46.1420   47.7870   70.7730 N.3   100  LYS100     -0.1314
     79  N         49.2580   44.2870   66.9900 N.3   104  PRO104     -0.2102
     80  CA        50.5260   44.1530   66.2770 C.3   104  PRO104      0.1504
     81  C         51.2980   42.9570   66.8300 C.2   104  PRO104      0.2575
     82  O         52.4420   43.0970   67.2670 O.2   104  PRO104     -0.2718
     83  CB        51.2390   45.4770   66.5680 C.3   104  PRO104      0.0282
     84  CG        50.2260   46.3340   67.3340 C.3   104  PRO104      0.0208
     85  CD        49.3090   45.3690   67.9820 C.3   104  PRO104      0.0893
     86  N         50.6570   41.7920   66.8350 N.am  105  ILE105     -0.1980
     87  CA        51.2780   40.5730   67.3440 C.3   105  ILE105      0.1595
     88  C         51.4640   39.5380   66.2340 C.2   105  ILE105      0.2287
     89  O         50.5010   38.9170   65.7700 O.2   105  ILE105     -0.2864
     90  CB        50.4340   39.9400   68.4800 C.3   105  ILE105      0.0276
     91  CG1       50.3820   40.8960   69.6730 C.3   105  ILE105      0.0022
     92  CG2       51.0290   38.6000   68.9100 C.3   105  ILE105      0.0022
     93  CD1       49.3180   40.5440   70.6960 C.3   105  ILE105      0.0001
     94  N         41.3220   42.4660   77.4250 N.3   114  ILE114     -0.1245
     95  CA        41.1060   42.5370   78.8590 C.3   114  ILE114      0.1561
     96  C         39.6300   42.5750   79.2160 C.2   114  ILE114      0.2260
     97  O         38.7640   42.7540   78.3660 O.2   114  ILE114     -0.2867
     98  CB        41.7770   43.7910   79.4530 C.3   114  ILE114      0.0252
     99  CG1       41.2140   45.0490   78.7970 C.3   114  ILE114      0.0019
    100  CG2       43.2600   43.7570   79.1960 C.3   114  ILE114      0.0019
    101  CD1       40.5150   45.9970   79.7550 C.3   114  ILE114      0.0001
@<TRIPOS>BOND
     1    31    30    2
     2    28    29    1
     3    89    88    2
     4    30    29    1
     5    29    32    1
     6    88    87    1
     7    80    83    1
     8    80    81    1
     9    80    79    1
    10    83    84    1
    11    81    86   am
    12    81    82    2
    13    86    87    1
    14    27    25    1
    15    79    85    1
    16    84    85    1
    17    87    90    1
    18    25    26    1
    19    25    24    1
    20    33    32    1
    21    33    34    1
    22    23    22    2
    23    90    92    1
    24    90    91    1
    25    22    21    1
    26    24    21    1
    27    34    36   ar
    28    34    35   ar
    29    72    73    2
    30    72    71    1
    31     1     2    1
    32     4     3    2
    33    21    20    1
    34    91    93    1
    35    71    74    1
    36    71    70    1
    37    75    74    1
    38    75    76    1
    39     3     2    1
    40     3    11   am
    41     2     5    1
    42    20    17   am
    43    77    78    1
    44    77    76    1
    45     8    10   ar
    46     8     6   ar
    47    12    11    1
    48    12    13    1
    49    10     9   ar
    50    14    13    2
    51     6     5    1
    52     6     7   ar
    53    13    15   am
    54    17    18    2
    55    17    16    1
    56     9     7   ar
    57    15    16    1
    58    16    19    1
    59    60    58    1
    60    40    39    2
    61    43    42    2
    62    59    58    1
    63    58    57    1
    64    38    37    1
    65    38    39    1
    66    38    41    1
    67    39    45   am
    68    42    41    1
    69    42    44   am
    70    57    54    1
    71    45    46    1
    72    54    53    1
    73    54    55    1
    74    53    47   am
    75    47    48    2
    76    47    46    1
    77    46    49    1
    78    94    95    1
    79    52    50    1
    80    55    56    2
    81    55    61   am
    82    97    96    2
    83    49    50    1
    84    50    51    1
    85    99    98    1
    86    99   101    1
    87    95    96    1
    88    95    98    1
    89    61    62    1
    90   100    98    1
    91    68    67   ar
    92    67    69   ar
    93    67    66    1
    94    62    63    1
    95    62    65    1
    96    63    64    2
    97    65    66    1
