@<TRIPOS>MOLECULE
tmp/1rs4A00.pdb
 101 98 0 0 0
SMALL
GASTEIGER

@<TRIPOS>ATOM
      1  N         49.4910   51.4500   72.5500 N.3    18  ALA18      -0.1231
      2  CA        50.7480   52.0010   73.0580 C.3    18  ALA18       0.1694
      3  C         51.8190   52.2400   71.9710 C.2    18  ALA18       0.2591
      4  O         52.8560   52.8580   72.2280 O.2    18  ALA18      -0.2718
      5  CB        51.3020   51.0900   74.1580 C.3    18  ALA18       0.0304
      6  N         51.5400   51.7650   70.7590 N.am   19  LEU19      -0.1980
      7  CA        52.4410   51.8880   69.6180 C.3    19  LEU19       0.1596
      8  C         52.0140   53.0120   68.6750 C.2    19  LEU19       0.2287
      9  O         50.8530   53.0930   68.2690 O.2    19  LEU19      -0.2864
     10  CB        52.4700   50.5530   68.8750 C.3    19  LEU19       0.0297
     11  CG        53.3400   50.3150   67.6390 C.3    19  LEU19       0.0022
     12  CD1       54.6570   51.0780   67.7270 C.3    19  LEU19       0.0001
     13  CD2       53.5780   48.8130   67.5280 C.3    19  LEU19       0.0001
     14  N         50.0680   52.1650   65.7100 N.3    22  GLU22      -0.1245
     15  CA        48.6900   51.8250   66.0330 C.3    22  GLU22       0.1567
     16  C         47.8150   53.0830   65.9750 C.2    22  GLU22       0.2260
     17  O         46.7830   53.1120   65.3050 O.2    22  GLU22      -0.2867
     18  CB        48.6290   51.2250   67.4310 C.3    22  GLU22       0.0388
     19  CG        49.0080   49.7710   67.4810 C.3    22  GLU22       0.1160
     20  CD        48.7990   49.1630   68.8520 C.2    22  GLU22       0.3649
     21  OE1       49.4110   49.6460   69.8260 O.co2  22  GLU22      -0.2457
     22  OE2       48.0210   48.1890   68.9660 O.co2  22  GLU22      -0.2457
     23  N         46.3370   54.8830   75.4620 N.3    71  ASN71      -0.1225
     24  CA        47.2960   53.8060   75.3130 C.3    71  ASN71       0.1785
     25  C         46.6900   52.4450   75.5590 C.2    71  ASN71       0.2597
     26  O         46.6900   51.5820   74.6860 O.2    71  ASN71      -0.2718
     27  CB        48.4730   53.9730   76.2800 C.3    71  ASN71       0.1169
     28  CG        49.3370   55.1830   75.9710 C.2    71  ASN71       0.2627
     29  OD1       49.6410   55.4880   74.8160 O.2    71  ASN71      -0.2716
     30  ND2       49.7430   55.8780   77.0150 N.am   71  ASN71      -0.0877
     31  N         46.1570   52.2590   76.7550 N.am   72  LEU72      -0.1966
     32  CA        45.6230   50.9630   77.1280 C.3    72  LEU72       0.1728
     33  C         44.1410   50.6860   76.9380 C.2    72  LEU72       0.2616
     34  O         43.3210   51.5880   76.7910 O.2    72  LEU72      -0.2715
     35  CB        46.0190   50.6810   78.5770 C.3    72  LEU72       0.0311
     36  CG        47.4800   50.9950   78.9130 C.3    72  LEU72       0.0022
     37  CD1       47.7950   50.5280   80.3250 C.3    72  LEU72       0.0001
     38  CD2       48.3930   50.3140   77.9070 C.3    72  LEU72       0.0001
     39  N         43.8250   49.4000   76.9290 N.am   73  LEU73      -0.1963
     40  CA        42.4640   48.9390   76.7940 C.3    73  LEU73       0.1728
     41  C         41.8580   49.0720   78.1850 C.2    73  LEU73       0.2616
     42  O         40.6510   49.2860   78.3310 O.2    73  LEU73      -0.2715
     43  CB        42.4480   47.4720   76.3510 C.3    73  LEU73       0.0311
     44  CG        42.9120   47.1290   74.9270 C.3    73  LEU73       0.0022
     45  CD1       42.7070   45.6390   74.6700 C.3    73  LEU73       0.0001
     46  CD2       42.1260   47.9580   73.9120 C.3    73  LEU73       0.0001
     47  N         42.7280   48.9400   79.1930 N.am   74  GLU74      -0.1977
     48  CA        42.3770   49.0340   80.6220 C.3    74  GLU74       0.1602
     49  C         41.8150   50.4080   80.9440 C.2    74  GLU74       0.2287
     50  O         40.9450   50.5600   81.8050 O.2    74  GLU74      -0.2864
     51  CB        43.6250   48.8260   81.4910 C.3    74  GLU74       0.0415
     52  CG        44.0700   47.3970   81.6630 C.3    74  GLU74       0.1163
     53  CD        45.0720   46.9570   80.6060 C.2    74  GLU74       0.3649
     54  OE1       45.1680   47.6170   79.5560 O.co2  74  GLU74      -0.2457
     55  OE2       45.7660   45.9410   80.8140 O.co2  74  GLU74      -0.2457
     56  N         41.0480   43.1650   71.0930 N.3   100  LYS100     -0.1245
     57  CA        41.7680   43.6230   69.9250 C.3   100  LYS100      0.1561
     58  C         41.9220   42.3240   69.1450 C.2   100  LYS100      0.2260
     59  O         42.8120   41.5280   69.4170 O.2   100  LYS100     -0.2867
     60  CB        43.1440   44.1520   70.3260 C.3   100  LYS100      0.0271
     61  CG        43.2850   45.6580   70.3070 C.3   100  LYS100      0.0035
     62  CD        44.6850   46.0440   70.7690 C.3   100  LYS100      0.0206
     63  CE        44.8130   47.5390   71.0300 C.3   100  LYS100      0.1093
     64  NZ        46.2130   47.9840   71.3480 N.3   100  LYS100     -0.1314
     65  N         45.7380   42.8130   66.8490 N.3   103  PRO103     -0.2103
     66  CA        46.8130   43.6700   67.3440 C.3   103  PRO103      0.1489
     67  C         48.0890   43.4840   66.5160 C.2   103  PRO103      0.2418
     68  O         48.1540   42.6030   65.6480 O.2   103  PRO103     -0.2734
     69  CB        46.9860   43.2050   68.7830 C.3   103  PRO103      0.0282
     70  CG        46.6500   41.7500   68.7160 C.3   103  PRO103      0.0208
     71  CD        45.5380   41.6310   67.7040 C.3   103  PRO103      0.0893
     72  N         49.1140   44.3210   66.7700 N.am  104  PRO104     -0.2718
     73  CA        50.3700   44.2160   66.0270 C.3   104  PRO104      0.1535
     74  C         51.2110   43.0890   66.6000 C.2   104  PRO104      0.2598
     75  O         52.3860   43.2750   66.9020 O.2   104  PRO104     -0.2715
     76  CB        51.0330   45.5760   66.2420 C.3   104  PRO104      0.0310
     77  CG        50.1000   46.3730   67.1130 C.3   104  PRO104      0.0237
     78  CD        49.1870   45.3960   67.7660 C.3   104  PRO104      0.0939
     79  N         50.5840   41.9270   66.7650 N.am  105  ILE105     -0.1964
     80  CA        51.2460   40.7380   67.2840 C.3   105  ILE105      0.1712
     81  C         51.3900   39.7280   66.1520 C.2   105  ILE105      0.2458
     82  O         50.3940   39.2400   65.6130 O.2   105  ILE105     -0.2730
     83  CB        50.4180   40.0390   68.3940 C.3   105  ILE105      0.0289
     84  CG1       50.1820   40.9910   69.5690 C.3   105  ILE105      0.0022
     85  CG2       51.1280   38.7530   68.8370 C.3   105  ILE105      0.0023
     86  CD1       49.2740   40.4300   70.6540 C.3   105  ILE105      0.0001
     87  N         52.6440   39.4120   65.7680 N.am  106  PRO106     -0.2727
     88  CA        52.8940   38.4460   64.6950 C.3   106  PRO106      0.1402
     89  C         52.4690   37.0450   65.1300 C.2   106  PRO106      0.2269
     90  O         53.1480   36.3970   65.9220 O.2   106  PRO106     -0.2865
     91  CB        54.4080   38.5410   64.4750 C.3   106  PRO106      0.0296
     92  CG        54.8370   39.8160   65.1400 C.3   106  PRO106      0.0237
     93  CD        53.9020   39.9530   66.3020 C.3   106  PRO106      0.0939
     94  N         41.2240   42.5640   77.5470 N.3   114  ILE114     -0.1245
     95  CA        40.9940   42.6290   78.9660 C.3   114  ILE114      0.1561
     96  C         39.5100   42.7710   79.2490 C.2   114  ILE114      0.2260
     97  O         38.7090   43.1620   78.3920 O.2   114  ILE114     -0.2867
     98  CB        41.7790   43.8100   79.6170 C.3   114  ILE114      0.0252
     99  CG1       41.2990   45.1570   79.0690 C.3   114  ILE114      0.0019
    100  CG2       43.2570   43.6720   79.3210 C.3   114  ILE114      0.0019
    101  CD1       40.2920   45.8580   79.9500 C.3   114  ILE114      0.0001
@<TRIPOS>BOND
     1    91    88    1
     2    91    92    1
     3    88    89    1
     4    88    87    1
     5    89    90    2
     6    92    93    1
     7    17    16    2
     8    82    81    2
     9    68    67    2
    10    14    15    1
    11    87    81   am
    12    87    93    1
    13    16    15    1
    14    73    76    1
    15    73    74    1
    16    73    72    1
    17    15    18    1
    18    81    80    1
    19    76    77    1
    20    67    72   am
    21    67    66    1
    22    74    79   am
    23    74    75    2
    24    79    80    1
    25    72    78    1
    26    65    66    1
    27    65    71    1
    28    77    78    1
    29    80    83    1
    30    66    69    1
    31    18    19    1
    32    19    20    1
    33    13    11    1
    34    11    12    1
    35    11    10    1
    36    71    70    1
    37     9     8    2
    38    83    85    1
    39    83    84    1
    40     8     7    1
    41    70    69    1
    42    20    22   ar
    43    20    21   ar
    44    10     7    1
    45    58    59    2
    46    58    57    1
    47    84    86    1
    48     7     6    1
    49    57    60    1
    50    57    56    1
    51    61    60    1
    52    61    62    1
    53     6     3   am
    54    62    63    1
    55    63    64    1
    56     3     4    2
    57     3     2    1
    58     1     2    1
    59     2     5    1
    60    46    44    1
    61    45    44    1
    62    26    25    2
    63    29    28    2
    64    44    43    1
    65    24    23    1
    66    24    25    1
    67    24    27    1
    68    25    31   am
    69    28    27    1
    70    28    30   am
    71    43    40    1
    72    31    32    1
    73    34    33    2
    74    40    39    1
    75    40    41    1
    76    39    33   am
    77    33    32    1
    78    32    35    1
    79    94    95    1
    80    38    36    1
    81    41    42    2
    82    41    47   am
    83    97    96    2
    84    35    36    1
    85    36    37    1
    86    95    96    1
    87    95    98    1
    88    99    98    1
    89    99   101    1
    90    47    48    1
    91   100    98    1
    92    54    53   ar
    93    53    55   ar
    94    53    52    1
    95    48    49    1
    96    48    51    1
    97    49    50    2
    98    51    52    1
