@<TRIPOS>MOLECULE
tmp/1rs6B04.pdb
 174 171 0 0 0
SMALL
GASTEIGER

@<TRIPOS>ATOM
      1  N         18.1890   12.3390   47.4340 N.3    38  MET38      -0.1230
      2  CA        17.9970   11.7510   48.7560 C.3    38  MET38       0.1702
      3  C         17.5750   12.7240   49.8650 C.2    38  MET38       0.2592
      4  O         16.7900   12.3570   50.7470 O.2    38  MET38      -0.2718
      5  CB        19.2530   10.9870   49.1770 C.3    38  MET38       0.0401
      6  CG        19.0680   10.2010   50.4660 C.3    38  MET38       0.0596
      7  SD        20.1960    8.8170   50.5670 S.3    38  MET38      -0.1393
      8  CE        19.3630    7.6560   49.5600 C.3    38  MET38       0.0692
      9  N         18.0860   13.9520   49.8250 N.am   39  LEU39      -0.1980
     10  CA        17.7330   14.9530   50.8240 C.3    39  LEU39       0.1596
     11  C         17.9400   16.3650   50.2770 C.2    39  LEU39       0.2287
     12  O         18.9840   16.9780   50.4870 O.2    39  LEU39      -0.2864
     13  CB        18.5410   14.7290   52.1190 C.3    39  LEU39       0.0297
     14  CG        20.0480   14.4450   52.1770 C.3    39  LEU39       0.0022
     15  CD1       20.4140   14.0560   53.6000 C.3    39  LEU39       0.0001
     16  CD2       20.4250   13.3010   51.2630 C.3    39  LEU39       0.0001
     17  N          7.4770    5.6460   53.7580 N.3   108  CYS108     -0.1235
     18  CA         7.1560    4.3960   54.4710 C.3   108  CYS108      0.1677
     19  C          6.0550    3.5520   53.8450 C.2   108  CYS108      0.2270
     20  O          4.9040    3.9800   53.7800 O.2   108  CYS108     -0.2867
     21  CB         6.7860    4.6970   55.9370 C.3   108  CYS108      0.0956
     22  SG         6.4810    3.2370   57.0080 S.3   108  CYS108     -0.0801
     23  N         22.1700    5.5140   64.7670 N.3   170  SER170     -0.1202
     24  CA        21.2270    5.7110   63.6560 C.3   170  SER170      0.2020
     25  C         19.9750    4.8620   63.8760 C.2   170  SER170      0.2618
     26  O         18.8730    5.2610   63.5130 O.2   170  SER170     -0.2717
     27  CB        21.9010    5.3610   62.3280 C.3   170  SER170      0.2103
     28  OG        22.9820    6.2600   62.1430 O.3   170  SER170     -0.2182
     29  N         20.1790    3.6790   64.4420 N.am  171  GLN171     -0.1979
     30  CA        19.1130    2.7680   64.8280 C.3   171  GLN171      0.1601
     31  C         19.5330    2.3110   66.2260 C.2   171  GLN171      0.2287
     32  O         20.7270    2.2810   66.5290 O.2   171  GLN171     -0.2864
     33  CB        19.0370    1.5540   63.9020 C.3   171  GLN171      0.0394
     34  CG        18.3050    1.7820   62.5910 C.3   171  GLN171      0.0908
     35  CD        18.2570    0.5170   61.7550 C.2   171  GLN171      0.2608
     36  OE1       19.2900    0.0010   61.3420 O.2   171  GLN171     -0.2717
     37  NE2       17.0490    0.0040   61.5110 N.am  171  GLN171     -0.0878
     38  N         22.3090   -1.8410   65.7640 N.3   174  ARG174     -0.1245
     39  CA        23.0420   -1.8980   64.4910 C.3   174  ARG174      0.1563
     40  C         24.4050   -2.5320   64.7590 C.2   174  ARG174      0.2260
     41  O         24.8870   -2.5120   65.8960 O.2   174  ARG174     -0.2867
     42  CB        23.2690   -0.4960   63.8990 C.3   174  ARG174      0.0307
     43  CG        22.1800   -0.0300   62.9570 C.3   174  ARG174      0.0489
     44  CD        22.7200    0.9770   61.9670 C.3   174  ARG174      0.2205
     45  NE        21.6760    1.4930   61.0930 N.pl3 174  ARG174     -0.0865
     46  CZ        21.8760    2.4250   60.1670 C.cat 174  ARG174      0.5346
     47  NH1       23.0840    2.9360   60.0000 N.pl3 174  ARG174      0.1354
     48  NH2       20.8650    2.8520   59.4120 N.pl3 174  ARG174      0.1354
     49  N         14.1260   -3.3140   63.8980 N.3   258  PRO258     -0.2102
     50  CA        14.6290   -2.1260   63.2130 C.3   258  PRO258      0.1504
     51  C         14.0700   -0.9190   63.9940 C.2   258  PRO258      0.2576
     52  O         12.8490   -0.7790   64.1350 O.2   258  PRO258     -0.2718
     53  CB        14.0330   -2.2570   61.8290 C.3   258  PRO258      0.0282
     54  CG        12.6840   -2.8750   62.0760 C.3   258  PRO258      0.0208
     55  CD        12.8880   -3.8270   63.2670 C.3   258  PRO258      0.0893
     56  N         14.9390   -0.0730   64.5240 N.am  259  ALA259     -0.1966
     57  CA        14.4650    1.0680   65.3050 C.3   259  ALA259      0.1728
     58  C         15.1930    2.3680   65.0060 C.2   259  ALA259      0.2616
     59  O         16.2100    2.7020   65.6360 O.2   259  ALA259     -0.2715
     60  CB        14.5580    0.7410   66.7870 C.3   259  ALA259      0.0334
     61  N         14.6820    3.0980   64.0280 N.am  260  VAL260     -0.1977
     62  CA        15.2730    4.3880   63.6380 C.3   260  VAL260      0.1596
     63  C         15.3780    5.2780   64.8680 C.2   260  VAL260      0.2287
     64  O         14.3920    5.5280   65.5310 O.2   260  VAL260     -0.2864
     65  CB        14.4000    5.0400   62.5780 C.3   260  VAL260      0.0276
     66  CG1       14.7350    6.5230   62.4190 C.3   260  VAL260      0.0022
     67  CG2       14.5960    4.2910   61.2600 C.3   260  VAL260      0.0022
     68  N         17.4720    8.4240   64.9170 N.3   262  ASN262     -0.1240
     69  CA        18.0470    9.7370   64.6930 C.3   262  ASN262      0.1653
     70  C         17.2060   10.7520   63.9290 C.2   262  ASN262      0.2266
     71  O         17.7210   11.7690   63.4580 O.2   262  ASN262     -0.2867
     72  CB        19.4250    9.5940   64.0180 C.3   262  ASN262      0.1155
     73  CG        19.3430    8.9830   62.6280 C.2   262  ASN262      0.2627
     74  OD1       18.2720    8.5640   62.1560 O.2   262  ASN262     -0.2716
     75  ND2       20.4940    8.9160   61.9610 N.am  262  ASN262     -0.0877
     76  N         11.8790    5.0790   67.1010 N.3   277  PHE277     -0.1227
     77  CA        10.6700    4.3280   66.7890 C.3   277  PHE277      0.1736
     78  C         11.0310    2.9900   66.1340 C.2   277  PHE277      0.2596
     79  O         12.1180    2.8240   65.5910 O.2   277  PHE277     -0.2718
     80  CB         9.7530    5.1470   65.8700 C.3   277  PHE277      0.0547
     81  CG        10.3720    5.5320   64.5500 C.ar  277  PHE277     -0.0202
     82  CD1       10.4130    4.6370   63.4890 C.ar  277  PHE277     -0.0042
     83  CD2       10.8540    6.8330   64.3440 C.ar  277  PHE277     -0.0042
     84  CE1       10.9130    5.0170   62.2500 C.ar  277  PHE277     -0.0003
     85  CE2       11.3530    7.2150   63.1060 C.ar  277  PHE277     -0.0003
     86  CZ        11.3780    6.3100   62.0570 C.ar  277  PHE277     -0.0000
     87  N         10.1110    2.0430   66.1860 N.am  278  SER278     -0.1938
     88  CA        10.3570    0.7250   65.6130 C.3   278  SER278      0.2055
     89  C          9.0550    0.0500   65.2160 C.2   278  SER278      0.2644
     90  O          8.0060    0.3110   65.8010 O.2   278  SER278     -0.2714
     91  CB        11.1030   -0.1530   66.6240 C.3   278  SER278      0.2130
     92  OG        10.3800   -0.3030   67.8390 O.3   278  SER278     -0.2179
     93  N          9.1400   -0.7830   64.1850 N.am  279  GLY279     -0.1939
     94  CA         8.0050   -1.5630   63.7140 C.3   279  GLY279      0.2014
     95  C          8.6180   -2.9470   63.4930 C.2   279  GLY279      0.2639
     96  O          8.9590   -3.6250   64.4500 O.2   279  GLY279     -0.2714
     97  N          8.7450   -3.3690   62.2400 N.am  280  TRP280     -0.1959
     98  CA         9.3940   -4.6470   61.9150 C.3   280  TRP280      0.1771
     99  C          9.9140   -4.5720   60.4860 C.2   280  TRP280      0.2619
    100  O          9.5350   -3.7040   59.7170 O.2   280  TRP280     -0.2715
    101  CB         8.4530   -5.8470   62.0940 C.3   280  TRP280      0.0590
    102  CG         7.1570   -5.7630   61.3700 C.ar  280  TRP280      0.0006
    103  CD1        6.9220   -6.0360   60.0440 C.ar  280  TRP280      0.0946
    104  CD2        5.8940   -5.4050   61.9340 C.ar  280  TRP280      0.0152
    105  NE1        5.5830   -5.8760   59.7610 N.ar  280  TRP280     -0.2442
    106  CE2        4.9320   -5.4910   60.9050 C.ar  280  TRP280      0.0810
    107  CE3        5.4790   -5.0230   63.2160 C.ar  280  TRP280      0.0012
    108  CZ2        3.5750   -5.2080   61.1200 C.ar  280  TRP280      0.0191
    109  CZ3        4.1310   -4.7450   63.4280 C.ar  280  TRP280      0.0001
    110  CH2        3.1990   -4.8410   62.3850 C.ar  280  TRP280      0.0015
    111  N         10.7780   -5.5020   60.1190 N.am  281  TYR281     -0.1974
    112  CA        11.3850   -5.4610   58.8020 C.3   281  TYR281      0.1639
    113  C         10.6110   -5.9830   57.6370 C.2   281  TYR281      0.2290
    114  O          9.7760   -6.8860   57.7790 O.2   281  TYR281     -0.2864
    115  CB        12.6980   -6.2410   58.8130 C.3   281  TYR281      0.0560
    116  CG        13.8780   -5.4680   59.2950 C.ar  281  TYR281     -0.0198
    117  CD1       14.5860   -5.8710   60.4210 C.ar  281  TYR281     -0.0009
    118  CD2       14.3580   -4.3890   58.5670 C.ar  281  TYR281     -0.0009
    119  CE1       15.7630   -5.2220   60.8050 C.ar  281  TYR281      0.0417
    120  CE2       15.5250   -3.7320   58.9400 C.ar  281  TYR281      0.0417
    121  CZ        16.2240   -4.1600   60.0570 C.ar  281  TYR281      0.1957
    122  OH        17.4100   -3.5300   60.3840 O.3   281  TYR281     -0.2866
    123  N         14.8940   -5.1290   53.0060 N.3   285  GLU285     -0.1245
    124  CA        15.7610   -4.1670   53.6760 C.3   285  GLU285      0.1567
    125  C         17.0780   -4.8520   54.0770 C.2   285  GLU285      0.2260
    126  O         18.1600   -4.2660   53.9540 O.2   285  GLU285     -0.2867
    127  CB        15.1040   -3.6040   54.9490 C.3   285  GLU285      0.0388
    128  CG        13.7960   -2.8490   54.7190 C.3   285  GLU285      0.1160
    129  CD        13.2650   -2.2460   55.9970 C.2   285  GLU285      0.3649
    130  OE1       13.8460   -1.2350   56.4610 O.co2 285  GLU285     -0.2457
    131  OE2       12.2770   -2.7920   56.5420 O.co2 285  GLU285     -0.2457
    132  N         11.1510    5.5540   46.8990 N.3   371  TRP371     -0.1241
    133  CA        11.4120    4.7830   48.1110 C.3   371  TRP371      0.1605
    134  C         10.4460    3.6460   48.3600 C.2   371  TRP371      0.2264
    135  O         10.8100    2.6400   48.9860 O.2   371  TRP371     -0.2867
    136  CB        11.3590    5.6910   49.3480 C.3   371  TRP371      0.0550
    137  CG        12.6540    6.3770   49.6460 C.ar  371  TRP371      0.0003
    138  CD1       13.3400    7.2170   48.8210 C.ar  371  TRP371      0.0946
    139  CD2       13.4510    6.2220   50.8190 C.ar  371  TRP371      0.0152
    140  NE1       14.5230    7.5870   49.4050 N.ar  371  TRP371     -0.2442
    141  CE2       14.6170    6.9900   50.6350 C.ar  371  TRP371      0.0810
    142  CE3       13.2920    5.5110   52.0160 C.ar  371  TRP371      0.0012
    143  CZ2       15.6310    7.0650   51.6030 C.ar  371  TRP371      0.0191
    144  CZ3       14.2920    5.5890   52.9710 C.ar  371  TRP371      0.0001
    145  CH2       15.4500    6.3590   52.7570 C.ar  371  TRP371      0.0015
    146  N         14.8740   14.3920   58.6910 N.3   399  TYR399     -0.1227
    147  CA        16.2610   14.0880   58.9300 C.3   399  TYR399      0.1736
    148  C         16.7600   15.2920   59.7240 C.2   399  TYR399      0.2595
    149  O         16.1330   16.3650   59.7110 O.2   399  TYR399     -0.2718
    150  CB        17.0160   14.0120   57.6050 C.3   399  TYR399      0.0548
    151  CG        16.6150   12.8600   56.7320 C.ar  399  TYR399     -0.0200
    152  CD1       16.4490   13.0400   55.3570 C.ar  399  TYR399     -0.0009
    153  CD2       16.4420   11.5710   57.2640 C.ar  399  TYR399     -0.0009
    154  CE1       16.1270   11.9720   54.5240 C.ar  399  TYR399      0.0417
    155  CE2       16.1160   10.4950   56.4380 C.ar  399  TYR399      0.0417
    156  CZ        15.9640   10.6990   55.0690 C.ar  399  TYR399      0.1957
    157  OH        15.6650    9.6470   54.2190 O.3   399  TYR399     -0.2866
    158  N         17.8630   15.1080   60.4360 N.am  400  GLN400     -0.1979
    159  CA        18.4860   16.1960   61.1820 C.3   400  GLN400      0.1601
    160  C         19.9840   15.9050   61.0840 C.2   400  GLN400      0.2287
    161  O         20.3710   14.7690   60.8820 O.2   400  GLN400     -0.2864
    162  CB        17.9760   16.2610   62.6390 C.3   400  GLN400      0.0394
    163  CG        18.1520   15.0140   63.4650 C.3   400  GLN400      0.0908
    164  CD        17.5690   15.1580   64.8630 C.2   400  GLN400      0.2608
    165  OE1       17.4170   16.2690   65.3820 O.2   400  GLN400     -0.2717
    166  NE2       17.2660   14.0220   65.4960 N.am  400  GLN400     -0.0878
    167  N         23.8420   14.9020   61.7890 N.3   402  ASP402     -0.1239
    168  CA        24.4470   14.0110   62.7490 C.3   402  ASP402      0.1674
    169  C         24.9810   14.8740   63.8830 C.2   402  ASP402      0.2266
    170  O         25.6630   15.8780   63.6680 O.2   402  ASP402     -0.2867
    171  CB        25.5320   13.1600   62.0920 C.3   402  ASP402      0.1410
    172  CG        24.9420   12.0020   61.2880 C.2   402  ASP402      0.3668
    173  OD1       24.0870   11.2700   61.8460 O.co2 402  ASP402     -0.2456
    174  OD2       25.3320   11.8200   60.1090 O.co2 402  ASP402     -0.2456
@<TRIPOS>BOND
     1   132   133    1
     2     1     2    1
     3   133   134    1
     4   133   136    1
     5   134   135    2
     6     2     5    1
     7     2     3    1
     8   138   140   ar
     9   138   137   ar
    10     5     6    1
    11   136   137    1
    12   140   141   ar
    13     8     7    1
    14   137   139   ar
    15     9     3   am
    16     9    10    1
    17     3     4    2
    18    11    12    2
    19    11    10    1
    20     6     7    1
    21   141   139   ar
    22   141   143   ar
    23   139   142   ar
    24    10    13    1
    25    16    14    1
    26   143   145   ar
    27   142   144   ar
    28    13    14    1
    29    14    15    1
    30   145   144   ar
    31   123   124    1
    32   124   125    1
    33   124   127    1
    34    17    18    1
    35    20    19    2
    36    19    18    1
    37   126   125    2
    38   157   156    1
    39    18    21    1
    40   154   156   ar
    41   154   152   ar
    42   128   127    1
    43   128   129    1
    44   156   155   ar
    45   152   151   ar
    46    21    22    1
    47   129   130   ar
    48   129   131   ar
    49   155   153   ar
    50   151   153   ar
    51   151   150    1
    52   150   147    1
    53   113   114    2
    54   113   112    1
    55   118   120   ar
    56   118   116   ar
    57   146   147    1
    58   112   115    1
    59   112   111    1
    60   115   116    1
    61   147   148    1
    62   120   121   ar
    63   116   117   ar
    64    48    46    1
    65   149   148    2
    66   100    99    2
    67   148   158   am
    68   105   103   ar
    69   105   106   ar
    70    47    46    1
    71   103   102   ar
    72   121   122    1
    73   121   119   ar
    74   174   172   ar
    75   111    99   am
    76    46    45    2
    77   117   119   ar
    78   158   159    1
    79    99    98    1
    80   161   160    2
    81   106   108   ar
    82   106   104   ar
    83   160   159    1
    84    45    44    1
    85   108   110   ar
    86   159   162    1
    87    67    65    1
    88   172   173   ar
    89   172   171    1
    90    36    35    2
    91   102   104   ar
    92   102   101    1
    93    37    35   am
    94    35    34    1
    95   167   168    1
    96    53    54    1
    97    53    50    1
    98    98   101    1
    99    98    97    1
   100   104   107   ar
   101    75    73   am
   102    44    43    1
   103    86    84   ar
   104    86    85   ar
   105    54    55    1
   106   171   168    1
   107    28    27    1
   108    74    73    2
   109    97    95   am
   110    84    82   ar
   111    27    24    1
   112   110   109   ar
   113    66    65    1
   114    65    62    1
   115    34    33    1
   116    73    72    1
   117   162   163    1
   118   168   169    1
   119    43    42    1
   120    85    83   ar
   121    50    49    1
   122    50    51    1
   123   107   109   ar
   124    55    49    1
   125    71    70    2
   126   163   164    1
   127    82    81   ar
   128    95    94    1
   129    95    96    2
   130    26    25    2
   131    62    61    1
   132    62    63    1
   133    24    25    1
   134    24    23    1
   135   170   169    2
   136    94    93    1
   137    25    29   am
   138    42    39    1
   139    33    30    1
   140    70    69    1
   141    51    52    2
   142    51    56   am
   143    72    69    1
   144    61    58   am
   145    93    89   am
   146    83    81   ar
   147    29    30    1
   148    39    40    1
   149    39    38    1
   150    56    57    1
   151    81    80    1
   152    69    68    1
   153    40    41    2
   154    30    31    1
   155   164   165    2
   156   164   166   am
   157    63    64    2
   158    58    57    1
   159    58    59    2
   160    89    88    1
   161    89    90    2
   162    57    60    1
   163    79    78    2
   164    88    87    1
   165    88    91    1
   166    80    77    1
   167    78    87   am
   168    78    77    1
   169    31    32    2
   170    91    92    1
   171    77    76    1
