@<TRIPOS>MOLECULE
tmp/1rs7A02.pdb
 157 154 0 0 0
SMALL
GASTEIGER

@<TRIPOS>ATOM
      1  N          2.8800    8.9840   34.9830 N.3    38  MET38      -0.1230
      2  CA         3.2110    8.5970   33.6090 C.3    38  MET38       0.1702
      3  C          3.0660    9.7180   32.5740 C.2    38  MET38       0.2592
      4  O          3.9610    9.9440   31.7610 O.2    38  MET38      -0.2718
      5  CB         2.3450    7.4230   33.1810 C.3    38  MET38       0.0401
      6  CG         2.5980    6.1580   33.9710 C.3    38  MET38       0.0596
      7  SD         3.2260    4.8140   32.9300 S.3    38  MET38      -0.1393
      8  CE         4.8700    5.3390   32.7710 C.3    38  MET38       0.0692
      9  N          1.9320   10.4030   32.6000 N.am   39  LEU39      -0.1980
     10  CA         1.6500   11.4810   31.6570 C.3    39  LEU39       0.1596
     11  C          1.3700   12.7860   32.4000 C.2    39  LEU39       0.2287
     12  O          0.2180   13.1750   32.5750 O.2    39  LEU39      -0.2864
     13  CB         0.4310   11.1040   30.8080 C.3    39  LEU39       0.0297
     14  CG         0.5300    9.7540   30.1000 C.3    39  LEU39       0.0022
     15  CD1       -0.8240    9.3500   29.5220 C.3    39  LEU39       0.0001
     16  CD2        1.6000    9.8430   29.0160 C.3    39  LEU39       0.0001
     17  N          2.0450    1.1220   17.7250 N.3   168  SER168     -0.1202
     18  CA         2.7520    1.7020   18.8830 C.3   168  SER168      0.2020
     19  C          4.2490    1.5010   18.6670 C.2   168  SER168      0.2618
     20  O          5.0580    2.3480   19.0350 O.2   168  SER168     -0.2717
     21  CB         2.2950    1.0470   20.1770 C.3   168  SER168      0.2103
     22  OG         0.9340    1.3600   20.4030 O.3   168  SER168     -0.2182
     23  N          4.5870    0.3600   18.0710 N.am  169  GLN169     -0.1979
     24  CA         5.9510    0.0090   17.6700 C.3   169  GLN169      0.1601
     25  C          5.7440   -0.5900   16.2730 C.2   169  GLN169      0.2287
     26  O          4.6830   -1.1430   15.9990 O.2   169  GLN169     -0.2864
     27  CB         6.5760   -1.0300   18.5920 C.3   169  GLN169      0.0394
     28  CG         7.1430   -0.4530   19.8900 C.3   169  GLN169      0.0908
     29  CD         7.7560   -1.5200   20.7660 C.2   169  GLN169      0.2608
     30  OE1        7.0530   -2.3880   21.2860 O.2   169  GLN169     -0.2717
     31  NE2        9.0750   -1.4680   20.9360 N.am  169  GLN169     -0.0878
     32  N          4.9270   -5.4840   16.6160 N.3   172  ARG172     -0.1245
     33  CA         4.2730   -5.8790   17.8580 C.3   172  ARG172      0.1563
     34  C          3.3420   -7.0660   17.6020 C.2   172  ARG172      0.2260
     35  O          2.9540   -7.3100   16.4640 O.2   172  ARG172     -0.2867
     36  CB         3.4990   -4.7130   18.4550 C.3   172  ARG172      0.0307
     37  CG         4.3480   -3.8110   19.3420 C.3   172  ARG172      0.0489
     38  CD         3.4710   -2.9000   20.1980 C.3   172  ARG172      0.2205
     39  NE         4.2350   -2.1350   21.1840 N.pl3 172  ARG172     -0.0865
     40  CZ         3.6760   -1.4930   22.2100 C.cat 172  ARG172      0.5346
     41  NH1        2.3590   -1.5270   22.3750 N.pl3 172  ARG172      0.1354
     42  NH2        4.4280   -0.8230   23.0780 N.pl3 172  ARG172      0.1354
     43  N         13.1010   -3.2730   18.5150 N.3   256  PRO256     -0.2116
     44  CA        12.1400   -2.4290   19.2320 C.3   256  PRO256      0.1372
     45  C         12.1190   -1.1220   18.4280 C.2   256  PRO256      0.2244
     46  O         13.1650   -0.4950   18.1890 O.2   256  PRO256     -0.2868
     47  CB        12.7590   -2.2950   20.6130 C.3   256  PRO256      0.0268
     48  CG        14.2290   -2.3310   20.3280 C.3   256  PRO256      0.0207
     49  CD        14.3900   -3.3510   19.2260 C.3   256  PRO256      0.0892
     50  N          9.8340    2.2330   18.4700 N.3   258  VAL258     -0.1245
     51  CA         8.7790    3.1460   18.8730 C.3   258  VAL258      0.1561
     52  C          8.2720    3.9480   17.6880 C.2   258  VAL258      0.2260
     53  O          9.0520    4.6660   17.0470 O.2   258  VAL258     -0.2867
     54  CB         9.2740    4.1300   19.9240 C.3   258  VAL258      0.0252
     55  CG1        8.1690    5.1560   20.1950 C.3   258  VAL258      0.0019
     56  CG2        9.6320    3.3760   21.2030 C.3   258  VAL258      0.0019
     57  N          4.9230    5.7620   17.7950 N.3   260  ASN260     -0.1240
     58  CA         3.8380    6.6850   18.1020 C.3   260  ASN260      0.1653
     59  C          4.2340    8.0130   18.7290 C.2   260  ASN260      0.2266
     60  O          3.3610    8.7910   19.1180 O.2   260  ASN260     -0.2867
     61  CB         2.8250    5.9960   19.0270 C.3   260  ASN260      0.1155
     62  CG         3.4650    5.4760   20.2980 C.2   260  ASN260      0.2627
     63  OD1        4.6750    5.6050   20.5000 O.2   260  ASN260     -0.2716
     64  ND2        2.6560    4.8760   21.1680 N.am  260  ASN260     -0.0877
     65  N         11.5720    5.3620   15.4280 N.3   275  PHE275     -0.1227
     66  CA        12.9960    5.1400   15.7040 C.3   275  PHE275      0.1736
     67  C         13.2120    3.7670   16.3480 C.2   275  PHE275      0.2596
     68  O         12.3030    3.1810   16.9390 O.2   275  PHE275     -0.2718
     69  CB        13.5350    6.2110   16.6350 C.3   275  PHE275      0.0547
     70  CG        12.8090    6.3020   17.9450 C.ar  275  PHE275     -0.0202
     71  CD1       13.0930    5.4120   18.9790 C.ar  275  PHE275     -0.0042
     72  CD2       11.8870    7.3260   18.1780 C.ar  275  PHE275     -0.0042
     73  CE1       12.4700    5.5490   20.2390 C.ar  275  PHE275     -0.0003
     74  CE2       11.2690    7.4620   19.4250 C.ar  275  PHE275     -0.0003
     75  CZ        11.5640    6.5760   20.4480 C.ar  275  PHE275     -0.0000
     76  N         14.4450    3.2810   16.2670 N.am  276  SER276     -0.1938
     77  CA        14.7730    1.9910   16.8180 C.3   276  SER276      0.2055
     78  C         16.2270    1.9370   17.2410 C.2   276  SER276      0.2644
     79  O         17.0760    2.6190   16.6500 O.2   276  SER276     -0.2714
     80  CB        14.4840    0.8790   15.7890 C.3   276  SER276      0.2130
     81  OG        15.2650    1.0270   14.6060 O.3   276  SER276     -0.2179
     82  N         16.4710    1.1650   18.3040 N.am  277  GLY277     -0.1939
     83  CA        17.8040    0.9290   18.8380 C.3   277  GLY277      0.2014
     84  C         17.8700   -0.6000   18.9670 C.2   277  GLY277      0.2639
     85  O         17.8480   -1.3130   17.9520 O.2   277  GLY277     -0.2714
     86  N         17.9860   -1.0960   20.1890 N.am  278  TRP278     -0.1959
     87  CA        17.9520   -2.5370   20.4650 C.3   278  TRP278      0.1771
     88  C         17.4200   -2.7010   21.8970 C.2   278  TRP278      0.2619
     89  O         17.4270   -1.7550   22.6960 O.2   278  TRP278     -0.2715
     90  CB        19.3160   -3.1950   20.3190 C.3   278  TRP278      0.0590
     91  CG        20.4130   -2.5300   21.0400 C.ar  278  TRP278      0.0006
     92  CD1       20.7170   -2.6320   22.3670 C.ar  278  TRP278      0.0946
     93  CD2       21.4040   -1.6960   20.4580 C.ar  278  TRP278      0.0152
     94  NE1       21.8590   -1.9090   22.6470 N.ar  278  TRP278     -0.2442
     95  CE2       22.3020   -1.3280   21.4870 C.ar  278  TRP278      0.0810
     96  CE3       21.6340   -1.2310   19.1520 C.ar  278  TRP278      0.0012
     97  CZ2       23.4110   -0.5160   21.2500 C.ar  278  TRP278      0.0191
     98  CZ3       22.7330   -0.4290   18.9180 C.ar  278  TRP278      0.0001
     99  CH2       23.6090   -0.0780   19.9660 C.ar  278  TRP278      0.0015
    100  N         16.9500   -3.8930   22.2210 N.am  279  TYR279     -0.1974
    101  CA        16.3650   -4.1340   23.5460 C.3   279  TYR279      0.1639
    102  C         17.2970   -4.2710   24.7270 C.2   279  TYR279      0.2290
    103  O         18.4430   -4.7050   24.5960 O.2   279  TYR279     -0.2864
    104  CB        15.5390   -5.4170   23.5160 C.3   279  TYR279      0.0560
    105  CG        14.1270   -5.2420   23.0810 C.ar  279  TYR279     -0.0198
    106  CD1       13.6580   -5.8110   21.9080 C.ar  279  TYR279     -0.0009
    107  CD2       13.2340   -4.5180   23.8790 C.ar  279  TYR279     -0.0009
    108  CE1       12.3060   -5.6670   21.5300 C.ar  279  TYR279      0.0417
    109  CE2       11.9170   -4.3620   23.5280 C.ar  279  TYR279      0.0417
    110  CZ        11.4590   -4.9410   22.3540 C.ar  279  TYR279      0.1957
    111  OH        10.1240   -4.7780   22.0470 O.3   279  TYR279     -0.2866
    112  N         13.1570   -5.4270   29.3960 N.3   283  GLU283     -0.1245
    113  CA        11.9560   -4.9370   28.7030 C.3   283  GLU283      0.1567
    114  C         11.0870   -6.1260   28.2640 C.2   283  GLU283      0.2260
    115  O          9.8540   -6.0660   28.2980 O.2   283  GLU283     -0.2867
    116  CB        12.3100   -4.1270   27.4310 C.3   283  GLU283      0.0388
    117  CG        13.0840   -2.8240   27.6730 C.3   283  GLU283      0.1160
    118  CD        13.3980   -2.0390   26.3850 C.2   283  GLU283      0.3649
    119  OE1       12.4660   -1.4590   25.7990 O.co2 283  GLU283     -0.2457
    120  OE2       14.5890   -1.9920   25.9580 O.co2 283  GLU283     -0.2457
    121  N          8.9970   -6.9340   31.9060 N.3   287  ARG287     -0.1245
    122  CA         7.7600   -6.2640   31.5870 C.3   287  ARG287      0.1563
    123  C          6.8530   -7.0190   30.6000 C.2   287  ARG287      0.2260
    124  O          5.7000   -7.2820   30.9200 O.2   287  ARG287     -0.2867
    125  CB         8.0520   -4.8420   31.0540 C.3   287  ARG287      0.0307
    126  CG         8.9020   -3.9360   31.9990 C.3   287  ARG287      0.0489
    127  CD         8.2910   -3.8100   33.4150 C.3   287  ARG287      0.2205
    128  NE         6.8770   -3.4250   33.3690 N.pl3 287  ARG287     -0.0865
    129  CZ         6.4320   -2.1990   33.0870 C.cat 287  ARG287      0.5346
    130  NH1        7.2750   -1.2030   32.8220 N.pl3 287  ARG287      0.1354
    131  NH2        5.1150   -1.9610   33.0740 N.pl3 287  ARG287      0.1354
    132  N         12.0690    5.7560   35.6190 N.3   369  TRP369     -0.1241
    133  CA        12.1630    4.9910   34.3790 C.3   369  TRP369      0.1605
    134  C         13.5630    4.3970   34.1010 C.2   369  TRP369      0.2264
    135  O         13.6940    3.3700   33.4370 O.2   369  TRP369     -0.2867
    136  CB        11.7930    5.8880   33.2040 C.3   369  TRP369      0.0550
    137  CG        10.3390    5.9280   32.9230 C.ar  369  TRP369      0.0003
    138  CD1        9.3450    6.4080   33.7460 C.ar  369  TRP369      0.0946
    139  CD2        9.6920    5.4500   31.7370 C.ar  369  TRP369      0.0152
    140  NE1        8.1190    6.2510   33.1290 N.ar  369  TRP369     -0.2442
    141  CE2        8.3050    5.6700   31.9050 C.ar  369  TRP369      0.0810
    142  CE3       10.1520    4.8630   30.5510 C.ar  369  TRP369      0.0012
    143  CZ2        7.3680    5.3170   30.9200 C.ar  369  TRP369      0.0191
    144  CZ3        9.2190    4.5080   29.5600 C.ar  369  TRP369      0.0001
    145  CH2        7.8450    4.7360   29.7560 C.ar  369  TRP369      0.0015
    146  N          4.9610   12.6540   23.9050 N.3   397  TYR397     -0.1241
    147  CA         3.8640   11.7450   23.6900 C.3   397  TYR397      0.1605
    148  C          2.8060   12.5090   22.8920 C.2   397  TYR397      0.2264
    149  O          2.7740   13.7360   22.9010 O.2   397  TYR397     -0.2867
    150  CB         3.2640   11.3350   25.0160 C.3   397  TYR397      0.0534
    151  CG         4.1720   10.5080   25.8820 C.ar  397  TYR397     -0.0201
    152  CD1        4.5010   10.9350   27.1700 C.ar  397  TYR397     -0.0009
    153  CD2        4.6410    9.2650   25.4520 C.ar  397  TYR397     -0.0009
    154  CE1        5.2600   10.1410   28.0230 C.ar  397  TYR397      0.0417
    155  CE2        5.4070    8.4580   26.2830 C.ar  397  TYR397      0.0417
    156  CZ         5.7050    8.9040   27.5710 C.ar  397  TYR397      0.1957
    157  OH         6.4230    8.1080   28.4330 O.3   397  TYR397     -0.2866
@<TRIPOS>BOND
     1    81    80    1
     2    65    66    1
     3    66    67    1
     4    66    69    1
     5    80    77    1
     6    26    25    2
     7    76    67   am
     8    76    77    1
     9    25    24    1
    10    67    68    2
    11    35    34    2
    12    32    33    1
    13    69    70    1
    14    79    78    2
    15    77    78    1
    16    53    52    2
    17    78    82   am
    18    34    33    1
    19    24    23    1
    20    24    27    1
    21    52    51    1
    22    17    18    1
    23    57    58    1
    24    33    36    1
    25    70    72   ar
    26    70    71   ar
    27    85    84    2
    28    23    19   am
    29    58    59    1
    30    58    61    1
    31    72    74   ar
    32    46    45    2
    33    82    83    1
    34    45    44    1
    35    36    37    1
    36    50    51    1
    37    43    49    1
    38    43    44    1
    39    27    28    1
    40    19    18    1
    41    19    20    2
    42    59    60    2
    43    83    84    1
    44    51    54    1
    45    18    21    1
    46    98    96   ar
    47    98    99   ar
    48    84    86   am
    49    71    73   ar
    50    61    62    1
    51    96    93   ar
    52    49    48    1
    53    44    47    1
    54    37    38    1
    55    74    75   ar
    56    28    29    1
    57    54    55    1
    58    54    56    1
    59    99    97   ar
    60    21    22    1
    61    86    87    1
    62    38    39    1
    63    73    75   ar
    64    62    63    2
    65    62    64   am
    66    90    87    1
    67    90    91    1
    68    48    47    1
    69    93    91   ar
    70    93    95   ar
    71    87    88    1
    72    29    31   am
    73    29    30    2
    74    91    92   ar
    75    39    40    2
    76    97    95   ar
    77    95    94   ar
    78   108   106   ar
    79   108   110   ar
    80    88   100   am
    81    88    89    2
    82   106   105   ar
    83   111   110    1
    84    40    41    1
    85    40    42    1
    86   100   101    1
    87   110   109   ar
    88    92    94   ar
    89   148   149    2
    90   148   147    1
    91   105   104    1
    92   105   107   ar
    93   104   101    1
    94   109   107   ar
    95   101   102    1
    96   147   146    1
    97   147   150    1
    98   103   102    2
    99   150   151    1
   100   153   151   ar
   101   153   155   ar
   102   119   118   ar
   103   151   152   ar
   104   120   118   ar
   105   155   156   ar
   106   118   117    1
   107   152   154   ar
   108   116   117    1
   109   116   113    1
   110   156   154   ar
   111   156   157    1
   112   114   115    2
   113   114   113    1
   114   113   112    1
   115    16    14    1
   116    15    14    1
   117   144   145   ar
   118   144   142   ar
   119   145   143   ar
   120    14    13    1
   121   142   139   ar
   122   123   124    2
   123   123   122    1
   124    13    10    1
   125   143   141   ar
   126   125   122    1
   127   125   126    1
   128   122   121    1
   129    10    11    1
   130    10     9    1
   131   139   141   ar
   132   139   137   ar
   133     4     3    2
   134   141   140   ar
   135   126   127    1
   136    11    12    2
   137     3     9   am
   138     3     2    1
   139     8     7    1
   140   130   129    1
   141   137   136    1
   142   137   138   ar
   143     7     6    1
   144   131   129    1
   145   129   128    2
   146   140   138   ar
   147     5     2    1
   148     5     6    1
   149   136   133    1
   150   128   127    1
   151   135   134    2
   152     2     1    1
   153   134   133    1
   154   133   132    1
