@<TRIPOS>MOLECULE
tmp/1rs8B03.pdb
 168 165 0 0 0
SMALL
GASTEIGER

@<TRIPOS>ATOM
      1  N          6.0680   -2.0390   55.3120 N.3    38  VAL38      -0.1231
      2  CA         5.6070   -1.6440   56.6360 C.3    38  VAL38       0.1692
      3  C          6.3510   -2.3630   57.7670 C.2    38  VAL38       0.2591
      4  O          7.0030   -1.7320   58.5970 O.2    38  VAL38      -0.2718
      5  CB         4.0860   -1.9150   56.7910 C.3    38  VAL38       0.0266
      6  CG1        3.6720   -1.6950   58.2240 C.3    38  VAL38       0.0020
      7  CG2        3.2920   -0.9920   55.8830 C.3    38  VAL38       0.0020
      8  N          6.2470   -3.6870   57.7890 N.am   39  LEU39      -0.1980
      9  CA         6.8810   -4.4990   58.8180 C.3    39  LEU39       0.1596
     10  C          8.1690   -5.1550   58.3460 C.2    39  LEU39       0.2287
     11  O          8.3860   -5.3530   57.1440 O.2    39  LEU39      -0.2864
     12  CB         5.9190   -5.5960   59.2850 C.3    39  LEU39       0.0297
     13  CG         4.4910   -5.1540   59.6140 C.3    39  LEU39       0.0022
     14  CD1        3.6110   -6.3700   59.8340 C.3    39  LEU39       0.0001
     15  CD2        4.4990   -4.2580   60.8290 C.3    39  LEU39       0.0001
     16  N          7.9720    8.9350   63.1520 N.3   108  CYS108     -0.1235
     17  CA         7.2800   10.0140   63.8670 C.3   108  CYS108      0.1677
     18  C          7.6060   11.4070   63.3300 C.2   108  CYS108      0.2270
     19  O          8.7620   11.8080   63.2770 O.2   108  CYS108     -0.2867
     20  CB         7.6170    9.9540   65.3610 C.3   108  CYS108      0.0956
     21  SG         6.6290   11.0780   66.3620 S.3   108  CYS108     -0.0801
     22  N         -4.2730   -2.0480   69.9850 N.3   170  SER170     -0.1202
     23  CA        -3.1900   -1.3050   69.3820 C.3   170  SER170      0.2020
     24  C         -3.2460    0.1750   69.7890 C.2   170  SER170      0.2618
     25  O         -2.3200    0.9280   69.5200 O.2   170  SER170     -0.2717
     26  CB        -3.2160   -1.4880   67.8620 C.3   170  SER170      0.2103
     27  OG        -4.5270   -1.4100   67.3610 O.3   170  SER170     -0.2182
     28  N         -4.3250    0.5730   70.4620 N.am  171  GLN171     -0.1979
     29  CA        -4.5130    1.9480   70.9460 C.3   171  GLN171      0.1601
     30  C         -5.4100    1.9250   72.1840 C.2   171  GLN171      0.2287
     31  O         -6.3570    1.1460   72.2460 O.2   171  GLN171     -0.2864
     32  CB        -5.1720    2.8230   69.8770 C.3   171  GLN171      0.0394
     33  CG        -4.2220    3.7170   69.0930 C.3   171  GLN171      0.0908
     34  CD        -4.9480    4.7750   68.2530 C.2   171  GLN171      0.2608
     35  OE1       -6.0300    4.3760   67.5910 O.2   171  GLN171     -0.2717
     36  NE2       -4.5270    5.9320   68.1970 N.am  171  GLN171     -0.0878
     37  N        -10.1050    3.1170   70.7890 N.3   174  ARG174     -0.1245
     38  CA       -10.3370    2.6970   69.4100 C.3   174  ARG174      0.1563
     39  C        -11.8150    2.4220   69.2180 C.2   174  ARG174      0.2260
     40  O        -12.5310    2.1600   70.1860 O.2   174  ARG174     -0.2867
     41  CB        -9.5430    1.4330   69.0950 C.3   174  ARG174      0.0307
     42  CG        -8.0590    1.5760   69.3450 C.3   174  ARG174      0.0489
     43  CD        -7.2580    0.9860   68.2150 C.3   174  ARG174      0.2205
     44  NE        -7.5610    1.6500   66.9560 N.pl3 174  ARG174     -0.0865
     45  CZ        -7.0610    1.2740   65.7850 C.cat 174  ARG174      0.5346
     46  NH1       -7.3870    1.9300   64.6800 N.pl3 174  ARG174      0.1354
     47  NH2       -6.2320    0.2380   65.7180 N.pl3 174  ARG174      0.1354
     48  N         -4.5040   10.0130   70.9850 N.3   258  PRO258     -0.2116
     49  CA        -3.8900    8.9810   70.1480 C.3   258  PRO258      0.1372
     50  C         -2.8730    8.2810   71.0390 C.2   258  PRO258      0.2244
     51  O         -1.7780    8.7870   71.2450 O.2   258  PRO258     -0.2868
     52  CB        -3.2480    9.7980   69.0380 C.3   258  PRO258      0.0268
     53  CG        -2.7600   10.9760   69.7590 C.3   258  PRO258      0.0207
     54  CD        -3.8510   11.3170   70.7600 C.3   258  PRO258      0.0892
     55  N         -0.7990    4.9650   71.3280 N.3   260  VAL260     -0.1245
     56  CA        -0.3180    3.6910   70.8300 C.3   260  VAL260      0.1561
     57  C         -0.0150    2.8050   72.0160 C.2   260  VAL260      0.2260
     58  O          0.6240    3.2490   72.9650 O.2   260  VAL260     -0.2867
     59  CB         0.9440    3.8780   69.9920 C.3   260  VAL260      0.0252
     60  CG1        1.4030    2.5340   69.4320 C.3   260  VAL260      0.0019
     61  CG2        0.6640    4.8820   68.8660 C.3   260  VAL260      0.0019
     62  N          0.4440   -0.9640   71.4020 N.3   262  ASN262     -0.1225
     63  CA         0.8280   -2.2900   70.9270 C.3   262  ASN262      0.1785
     64  C          2.3240   -2.4030   70.6630 C.2   262  ASN262      0.2597
     65  O          2.8220   -3.4500   70.2290 O.2   262  ASN262     -0.2718
     66  CB         0.0680   -2.6160   69.6340 C.3   262  ASN262      0.1169
     67  CG         0.4050   -1.6510   68.4850 C.2   262  ASN262      0.2627
     68  OD1        0.0760   -1.9100   67.3180 O.2   262  ASN262     -0.2716
     69  ND2        1.0530   -0.5370   68.8130 N.am  262  ASN262     -0.0877
     70  N          3.0540   -1.3310   70.9310 N.am  263  MET263     -0.1979
     71  CA         4.4720   -1.3610   70.6390 C.3   263  MET263      0.1605
     72  C          5.3730   -1.6370   71.8100 C.2   263  MET263      0.2287
     73  O          5.0720   -1.2850   72.9460 O.2   263  MET263     -0.2864
     74  CB         4.8600   -0.0690   69.9310 C.3   263  MET263      0.0413
     75  CG         4.3140   -0.0370   68.5120 C.3   263  MET263      0.0598
     76  SD         4.8810    1.3670   67.5980 S.3   263  MET263     -0.1393
     77  CE         6.6510    0.9360   67.3650 C.3   263  MET263      0.0692
     78  N          1.8840    5.1370   74.8500 N.3   277  PHE277     -0.1227
     79  CA         2.2880    6.5330   74.7870 C.3   277  PHE277      0.1736
     80  C          1.2620    7.3490   74.0240 C.2   277  PHE277      0.2596
     81  O          0.4250    6.8040   73.2990 O.2   277  PHE277     -0.2718
     82  CB         3.6570    6.6530   74.1250 C.3   277  PHE277      0.0547
     83  CG         3.7170    6.0830   72.7360 C.ar  277  PHE277     -0.0202
     84  CD1        3.2310    6.8070   71.6480 C.ar  277  PHE277     -0.0042
     85  CD2        4.2910    4.8340   72.5090 C.ar  277  PHE277     -0.0042
     86  CE1        3.3210    6.2970   70.3540 C.ar  277  PHE277     -0.0003
     87  CE2        4.3850    4.3130   71.2150 C.ar  277  PHE277     -0.0003
     88  CZ         3.9010    5.0490   70.1400 C.ar  277  PHE277     -0.0000
     89  N          1.3130    8.6600   74.2060 N.am  278  SER278     -0.1938
     90  CA         0.3780    9.5290   73.5150 C.3   278  SER278      0.2055
     91  C          0.8210   10.9800   73.5070 C.2   278  SER278      0.2644
     92  O          1.3040   11.5140   74.4990 O.2   278  SER278     -0.2714
     93  CB        -1.0270    9.4150   74.1370 C.3   278  SER278      0.2130
     94  OG        -1.0490    9.8760   75.4780 O.3   278  SER278     -0.2179
     95  N          0.6710   11.6030   72.3510 N.am  279  GLY279     -0.1939
     96  CA         0.9980   13.0030   72.2040 C.3   279  GLY279      0.2014
     97  C         -0.3020   13.5890   71.6960 C.2   279  GLY279      0.2639
     98  O         -1.2870   13.7120   72.4410 O.2   279  GLY279     -0.2714
     99  N         -0.3200   13.9470   70.4190 N.am  280  TRP280     -0.1959
    100  CA        -1.5330   14.4700   69.8340 C.3   280  TRP280      0.1771
    101  C         -1.6070   14.1560   68.3470 C.2   280  TRP280      0.2619
    102  O         -0.5960   13.9120   67.6790 O.2   280  TRP280     -0.2715
    103  CB        -1.7060   15.9790   70.1340 C.3   280  TRP280      0.0590
    104  CG        -0.5670   16.8970   69.7880 C.ar  280  TRP280      0.0006
    105  CD1       -0.2580   17.3870   68.5550 C.ar  280  TRP280      0.0946
    106  CD2        0.3840   17.4720   70.6980 C.ar  280  TRP280      0.0152
    107  NE1        0.8220   18.2320   68.6350 N.ar  280  TRP280     -0.2442
    108  CE2        1.2370   18.3030   69.9410 C.ar  280  TRP280      0.0810
    109  CE3        0.5980   17.3660   72.0820 C.ar  280  TRP280      0.0012
    110  CZ2        2.2940   19.0310   70.5210 C.ar  280  TRP280      0.0191
    111  CZ3        1.6470   18.0840   72.6600 C.ar  280  TRP280      0.0001
    112  CH2        2.4820   18.9080   71.8760 C.ar  280  TRP280      0.0015
    113  N         -2.8340   14.1200   67.8540 N.am  281  TYR281     -0.1974
    114  CA        -3.1090   13.8150   66.4750 C.3   281  TYR281      0.1639
    115  C         -2.6870   14.8950   65.5090 C.2   281  TYR281      0.2290
    116  O         -2.7030   16.0820   65.8320 O.2   281  TYR281     -0.2864
    117  CB        -4.6100   13.5940   66.2840 C.3   281  TYR281      0.0560
    118  CG        -5.0420   12.1630   66.3430 C.ar  281  TYR281     -0.0198
    119  CD1       -4.4690   11.2280   65.5040 C.ar  281  TYR281     -0.0009
    120  CD2       -6.0270   11.7430   67.2380 C.ar  281  TYR281     -0.0009
    121  CE1       -4.8490    9.9070   65.5440 C.ar  281  TYR281      0.0417
    122  CE2       -6.4230   10.4100   67.2860 C.ar  281  TYR281      0.0417
    123  CZ        -5.8230    9.5000   66.4320 C.ar  281  TYR281      0.1957
    124  OH        -6.1740    8.1790   66.4370 O.3   281  TYR281     -0.2866
    125  N         -4.1680   12.0950   59.9860 N.3   285  GLU285     -0.1245
    126  CA        -4.3020   10.7490   60.5090 C.3   285  GLU285      0.1567
    127  C         -5.7750   10.4380   60.5530 C.2   285  GLU285      0.2260
    128  O         -6.2080    9.3670   60.1440 O.2   285  GLU285     -0.2867
    129  CB        -3.7150   10.6610   61.9130 C.3   285  GLU285      0.0388
    130  CG        -2.2030   10.7940   61.9740 C.3   285  GLU285      0.1160
    131  CD        -1.6760   10.5340   63.3640 C.2   285  GLU285      0.3649
    132  OE1       -1.1790   11.4770   64.0130 O.co2 285  GLU285     -0.2457
    133  OE2       -1.7790    9.3770   63.8160 O.co2 285  GLU285     -0.2457
    134  N          6.6790    7.6520   55.4790 N.3   371  TRP371     -0.1241
    135  CA         5.8160    7.8920   56.6320 C.3   371  TRP371      0.1605
    136  C          5.7900    9.3540   57.0630 C.2   371  TRP371      0.2264
    137  O          4.7740    9.8530   57.5420 O.2   371  TRP371     -0.2867
    138  CB         6.2600    7.0270   57.8090 C.3   371  TRP371      0.0550
    139  CG         5.6920    5.6520   57.7620 C.ar  371  TRP371      0.0003
    140  CD1        5.8300    4.7480   56.7600 C.ar  371  TRP371      0.0946
    141  CD2        4.8580    5.0410   58.7480 C.ar  371  TRP371      0.0152
    142  NE1        5.1270    3.6050   57.0530 N.ar  371  TRP371     -0.2442
    143  CE2        4.5210    3.7580   58.2710 C.ar  371  TRP371      0.0810
    144  CE3        4.3630    5.4560   59.9910 C.ar  371  TRP371      0.0012
    145  CZ2        3.7080    2.8800   58.9880 C.ar  371  TRP371      0.0191
    146  CZ3        3.5530    4.5810   60.7080 C.ar  371  TRP371      0.0001
    147  CH2        3.2340    3.3050   60.2000 C.ar  371  TRP371      0.0015
    148  N          7.9030   -3.0580   66.7690 N.3   399  TYR399     -0.1227
    149  CA         6.6120   -3.6970   66.6510 C.3   399  TYR399      0.1736
    150  C          6.8190   -5.0540   67.3160 C.2   399  TYR399      0.2595
    151  O          7.9530   -5.5290   67.4650 O.2   399  TYR399     -0.2718
    152  CB         6.2560   -3.9210   65.1880 C.3   399  TYR399      0.0548
    153  CG         5.8700   -2.6970   64.4050 C.ar  399  TYR399     -0.0200
    154  CD1        4.7100   -1.9840   64.7100 C.ar  399  TYR399     -0.0009
    155  CD2        6.6130   -2.3080   63.2910 C.ar  399  TYR399     -0.0009
    156  CE1        4.2940   -0.9170   63.9150 C.ar  399  TYR399      0.0417
    157  CE2        6.2080   -1.2460   62.4870 C.ar  399  TYR399      0.0417
    158  CZ         5.0450   -0.5580   62.8040 C.ar  399  TYR399      0.1957
    159  OH         4.6340    0.4700   61.9930 O.3   399  TYR399     -0.2866
    160  N          5.7250   -5.6860   67.7040 N.am  400  GLN400     -0.1979
    161  CA         5.8010   -6.9760   68.3420 C.3   400  GLN400      0.1601
    162  C          4.5390   -7.7560   68.0120 C.2   400  GLN400      0.2287
    163  O          3.4870   -7.1690   67.7150 O.2   400  GLN400     -0.2864
    164  CB         5.9400   -6.8050   69.8520 C.3   400  GLN400      0.0394
    165  CG         4.7600   -6.1260   70.5010 C.3   400  GLN400      0.0908
    166  CD         4.9080   -6.0500   71.9980 C.2   400  GLN400      0.2608
    167  OE1        5.4410   -6.9660   72.6250 O.2   400  GLN400     -0.2717
    168  NE2        4.4190   -4.9680   72.5860 N.am  400  GLN400     -0.0878
@<TRIPOS>BOND
     1     1     2    1
     2   134   135    1
     3     7     5    1
     4   135   136    1
     5   135   138    1
     6     2     5    1
     7     2     3    1
     8   140   142   ar
     9   140   139   ar
    10     5     6    1
    11   142   143   ar
    12   136   137    2
    13    11    10    2
    14   139   138    1
    15   139   141   ar
    16     3     8   am
    17     3     4    2
    18     8     9    1
    19   143   141   ar
    20   143   145   ar
    21    10     9    1
    22   141   144   ar
    23     9    12    1
    24   145   147   ar
    25    12    13    1
    26    13    14    1
    27    13    15    1
    28   125   126    1
    29   144   146   ar
    30   128   127    2
    31   147   146   ar
    32   126   127    1
    33   126   129    1
    34   129   130    1
    35   130   131    1
    36   159   158    1
    37   157   158   ar
    38   157   155   ar
    39   158   156   ar
    40    16    17    1
    41    19    18    2
    42   155   153   ar
    43    18    17    1
    44   131   133   ar
    45   131   132   ar
    46    17    20    1
    47   156   154   ar
    48   153   154   ar
    49   153   152    1
    50    46    45    1
    51   152   149    1
    52    20    21    1
    53   119   121   ar
    54   119   118   ar
    55   115   116    2
    56   115   114    1
    57   121   123   ar
    58    47    45    1
    59    45    44    2
    60   117   118    1
    61   117   114    1
    62   118   120   ar
    63   123   124    1
    64   123   122   ar
    65   114   113    1
    66   149   148    1
    67   149   150    1
    68    44    43    1
    69   120   122   ar
    70   150   151    2
    71   150   160   am
    72    68    67    2
    73    27    26    1
    74    77    76    1
    75    35    34    2
    76    76    75    1
    77   102   101    2
    78   160   161    1
    79   163   162    2
    80   113   101   am
    81    26    23    1
    82   162   161    1
    83    36    34   am
    84    43    42    1
    85    34    33    1
    86   161   164    1
    87   101   100    1
    88    67    69   am
    89    67    66    1
    90    75    74    1
    91   105   107   ar
    92   105   104   ar
    93   107   108   ar
    94    61    59    1
    95    52    53    1
    96    52    49    1
    97    33    32    1
    98    41    42    1
    99    41    38    1
   100    39    38    1
   101    39    40    2
   102    23    24    1
   103    23    22    1
   104    38    37    1
   105    60    59    1
   106    25    24    2
   107    66    63    1
   108    53    54    1
   109   104   103    1
   110   104   106   ar
   111    24    28   am
   112   100   103    1
   113   100    99    1
   114   164   165    1
   115    32    29    1
   116    74    71    1
   117   108   110   ar
   118   108   106   ar
   119    59    56    1
   120    88    86   ar
   121    88    87   ar
   122    49    48    1
   123    49    50    1
   124    65    64    2
   125    86    84   ar
   126    99    97   am
   127    28    29    1
   128   165   166    1
   129   110   112   ar
   130    71    70    1
   131    71    72    1
   132    64    63    1
   133    64    70   am
   134   106   109   ar
   135    54    48    1
   136    56    55    1
   137    56    57    1
   138    63    62    1
   139    29    30    1
   140    50    51    2
   141    87    85   ar
   142    84    83   ar
   143    97    96    1
   144    97    98    2
   145    72    73    2
   146   112   111   ar
   147   166   168   am
   148   166   167    2
   149    57    58    2
   150   109   111   ar
   151    30    31    2
   152    96    95    1
   153    95    91   am
   154    85    83   ar
   155    83    82    1
   156    81    80    2
   157    91    90    1
   158    91    92    2
   159    90    93    1
   160    90    89    1
   161    80    89   am
   162    80    79    1
   163    82    79    1
   164    93    94    1
   165    79    78    1
