@<TRIPOS>MOLECULE
tmp/1rs9A02.pdb
 159 156 0 0 0
SMALL
GASTEIGER

@<TRIPOS>ATOM
      1  N         17.4100   11.1630   45.6150 N.3    40  VAL40      -0.1231
      2  CA        17.1630   11.3640   44.1970 C.3    40  VAL40       0.1692
      3  C         18.3130   10.8540   43.3440 C.2    40  VAL40       0.2591
      4  O         18.1070   10.1810   42.3420 O.2    40  VAL40      -0.2718
      5  CB        16.9740   12.8370   43.8820 C.3    40  VAL40       0.0266
      6  CG1       16.6370   13.0060   42.4180 C.3    40  VAL40       0.0020
      7  CG2       15.9040   13.4190   44.7800 C.3    40  VAL40       0.0020
      8  N         19.5260   11.1990   43.7460 N.am   41  LEU41      -0.1980
      9  CA        20.7320   10.7830   43.0470 C.3    41  LEU41       0.1596
     10  C         21.6370   10.0540   44.0130 C.2    41  LEU41       0.2287
     11  O         22.1460   10.6420   44.9680 O.2    41  LEU41      -0.2864
     12  CB        21.5050   11.9880   42.5140 C.3    41  LEU41       0.0297
     13  CG        20.9950   12.8060   41.3320 C.3    41  LEU41       0.0022
     14  CD1       21.9080   14.0190   41.1400 C.3    41  LEU41       0.0001
     15  CD2       20.9740   11.9450   40.0810 C.3    41  LEU41       0.0001
     16  N          8.8370    5.1590   36.9340 N.3   110  CYS110     -0.1235
     17  CA         7.7430    5.4050   35.9880 C.3   110  CYS110      0.1677
     18  C          6.4480    4.6810   36.3660 C.2   110  CYS110      0.2270
     19  O          6.4130    3.4430   36.4150 O.2   110  CYS110     -0.2867
     20  CB         8.1440    4.9360   34.5850 C.3   110  CYS110      0.0956
     21  SG         6.9480    5.3580   33.3100 S.3   110  CYS110     -0.0801
     22  N         16.8410   19.3480   29.2460 N.3   172  SER172     -0.1202
     23  CA        16.3920   18.1940   30.0180 C.3   172  SER172      0.2020
     24  C         15.1480   17.5830   29.3440 C.2   172  SER172      0.2618
     25  O         14.8830   16.3990   29.4920 O.2   172  SER172     -0.2717
     26  CB        16.1040   18.6040   31.4650 C.3   172  SER172      0.2103
     27  OG        15.1770   19.6750   31.5070 O.3   172  SER172     -0.2182
     28  N         14.3920   18.4010   28.6170 N.am  173  GLN173     -0.1979
     29  CA        13.2350   17.9320   27.8490 C.3   173  GLN173      0.1601
     30  C         13.2770   18.6700   26.5120 C.2   173  GLN173      0.2287
     31  O         13.8610   19.7590   26.4200 O.2   173  GLN173     -0.2864
     32  CB        11.9050   18.2520   28.5260 C.3   173  GLN173      0.0394
     33  CG        11.5460   17.3790   29.7050 C.3   173  GLN173      0.0908
     34  CD        10.1360   17.6400   30.1870 C.2   173  GLN173      0.2608
     35  OE1        9.2280   16.8150   29.9850 O.2   173  GLN173     -0.2717
     36  NE2        9.9350   18.7960   30.8200 N.am  173  GLN173     -0.0878
     37  N         10.5850   22.8530   26.9610 N.3   176  ARG176     -0.1245
     38  CA        10.6500   23.4420   28.3110 C.3   176  ARG176      0.1563
     39  C         10.6030   24.9720   28.3230 C.2   176  ARG176      0.2260
     40  O         11.0860   25.6250   27.3940 O.2   176  ARG176     -0.2867
     41  CB        11.9160   22.9880   29.0270 C.3   176  ARG176      0.0307
     42  CG        11.7880   21.6140   29.6020 C.3   176  ARG176      0.0489
     43  CD        12.5520   21.5090   30.8810 C.3   176  ARG176      0.2205
     44  NE        12.1210   20.3430   31.6310 N.pl3 176  ARG176     -0.0865
     45  CZ        12.5500   20.0490   32.8510 C.cat 176  ARG176      0.5346
     46  NH1       13.4250   20.8480   33.4510 N.pl3 176  ARG176      0.1354
     47  NH2       12.1070   18.9580   33.4700 N.pl3 176  ARG176      0.1354
     48  N          5.3610   15.6550   26.8960 N.3   260  PRO260     -0.2116
     49  CA         6.4080   15.4910   27.9050 C.3   260  PRO260      0.1372
     50  C          7.4930   14.7050   27.1870 C.2   260  PRO260      0.2244
     51  O          7.2500   13.5690   26.7830 O.2   260  PRO260     -0.2868
     52  CB         5.7040   14.6800   28.9950 C.3   260  PRO260      0.0268
     53  CG         4.7620   13.8210   28.2120 C.3   260  PRO260      0.0207
     54  CD         4.2010   14.7950   27.1910 C.3   260  PRO260      0.0892
     55  N         11.3920   13.6460   27.7950 N.3   262  VAL262     -0.1245
     56  CA        12.6760   13.5730   28.4640 C.3   262  VAL262      0.1561
     57  C         13.7840   13.4020   27.4230 C.2   262  VAL262      0.2260
     58  O         13.7280   12.5180   26.5670 O.2   262  VAL262     -0.2867
     59  CB        12.7000   12.4000   29.4620 C.3   262  VAL262      0.0252
     60  CG1       14.0170   12.3810   30.2390 C.3   262  VAL262      0.0019
     61  CG2       11.5350   12.5280   30.4090 C.3   262  VAL262      0.0019
     62  N         17.3420   14.0500   28.5030 N.3   264  ASN264     -0.1225
     63  CA        18.6420   14.0410   29.1400 C.3   264  ASN264      0.1785
     64  C         19.0940   12.7070   29.7000 C.2   264  ASN264      0.2597
     65  O         20.1860   12.6290   30.2650 O.2   264  ASN264     -0.2718
     66  CB        18.6980   15.1020   30.2520 C.3   264  ASN264      0.1169
     67  CG        17.6820   14.8550   31.3690 C.2   264  ASN264      0.2627
     68  OD1       17.7560   15.4740   32.4370 O.2   264  ASN264     -0.2716
     69  ND2       16.7250   13.9620   31.1240 N.am  264  ASN264     -0.0877
     70  N         18.2880   11.6560   29.5480 N.am  265  MET265     -0.1979
     71  CA        18.6760   10.3460   30.0910 C.3   265  MET265      0.1605
     72  C         19.5440    9.5480   29.1210 C.2   265  MET265      0.2287
     73  O         19.5150    9.7560   27.9080 O.2   265  MET265     -0.2864
     74  CB        17.4410    9.5050   30.4470 C.3   265  MET265      0.0413
     75  CG        16.3200   10.2800   31.1240 C.3   265  MET265      0.0598
     76  SD        15.9050    9.8480   32.8350 S.3   265  MET265     -0.1393
     77  CE        17.0010    8.4820   33.2150 C.3   265  MET265      0.0692
     78  N         12.7310   10.3760   24.7120 N.3   279  PHE279     -0.1227
     79  CA        11.4930    9.6160   24.7020 C.3   279  PHE279      0.1736
     80  C         10.3440   10.4740   25.2110 C.2   279  PHE279      0.2596
     81  O         10.5410   11.4780   25.9110 O.2   279  PHE279     -0.2718
     82  CB        11.6370    8.3680   25.5800 C.3   279  PHE279      0.0547
     83  CG        11.8580    8.6730   27.0310 C.ar  279  PHE279     -0.0202
     84  CD1       10.8060    9.0980   27.8350 C.ar  279  PHE279     -0.0042
     85  CD2       13.1160    8.5270   27.5980 C.ar  279  PHE279     -0.0042
     86  CE1       11.0020    9.3720   29.1970 C.ar  279  PHE279     -0.0003
     87  CE2       13.3270    8.7990   28.9570 C.ar  279  PHE279     -0.0003
     88  CZ        12.2630    9.2200   29.7560 C.ar  279  PHE279     -0.0000
     89  N          9.1370   10.0630   24.8690 N.am  280  SER280     -0.1938
     90  CA         7.9710   10.7900   25.3030 C.3   280  SER280      0.2055
     91  C          6.7950    9.8270   25.3670 C.2   280  SER280      0.2644
     92  O          6.7950    8.7870   24.7050 O.2   280  SER280     -0.2714
     93  CB         7.6710   11.9180   24.3200 C.3   280  SER280      0.2130
     94  OG         7.4730   11.4000   23.0130 O.3   280  SER280     -0.2179
     95  N          5.8140   10.1820   26.1940 N.am  281  GLY281     -0.1939
     96  CA         4.5940    9.4110   26.3380 C.3   281  GLY281      0.2014
     97  C          3.5160   10.4710   26.4610 C.2   281  GLY281      0.2639
     98  O          3.1760   11.1330   25.4790 O.2   281  GLY281     -0.2714
     99  N          2.9750   10.6370   27.6620 N.am  282  TRP282     -0.1959
    100  CA         1.9810   11.6700   27.9140 C.3   282  TRP282      0.1771
    101  C          1.9290   11.8980   29.4170 C.2   282  TRP282      0.2619
    102  O          2.2960   11.0110   30.1880 O.2   282  TRP282     -0.2715
    103  CB         0.6030   11.2880   27.3450 C.3   282  TRP282      0.0590
    104  CG         0.0090   10.0410   27.9010 C.ar  282  TRP282      0.0006
    105  CD1       -0.4960    9.8500   29.1670 C.ar  282  TRP282      0.0946
    106  CD2       -0.1610    8.8000   27.2090 C.ar  282  TRP282      0.0152
    107  NE1       -0.9680    8.5650   29.2930 N.ar  282  TRP282     -0.2442
    108  CE2       -0.7750    7.9000   28.1090 C.ar  282  TRP282      0.0810
    109  CE3        0.1430    8.3620   25.9140 C.ar  282  TRP282      0.0012
    110  CZ2       -1.0910    6.5820   27.7510 C.ar  282  TRP282      0.0191
    111  CZ3       -0.1720    7.0440   25.5550 C.ar  282  TRP282      0.0001
    112  CH2       -0.7810    6.1740   26.4710 C.ar  282  TRP282      0.0015
    113  N          1.4970   13.0950   29.8140 N.am  283  TYR283     -0.1974
    114  CA         1.4210   13.5110   31.2170 C.3   283  TYR283      0.1639
    115  C          0.4320   12.8640   32.1790 C.2   283  TYR283      0.2290
    116  O         -0.6660   12.4660   31.8040 O.2   283  TYR283     -0.2864
    117  CB         1.1410   15.0250   31.2980 C.3   283  TYR283      0.0560
    118  CG         2.3670   15.8940   31.2040 C.ar  283  TYR283     -0.0198
    119  CD1        3.4210   15.7360   32.1050 C.ar  283  TYR283     -0.0009
    120  CD2        2.4860   16.8620   30.2100 C.ar  283  TYR283     -0.0009
    121  CE1        4.5730   16.5200   32.0210 C.ar  283  TYR283      0.0417
    122  CE2        3.6300   17.6570   30.1050 C.ar  283  TYR283      0.0417
    123  CZ         4.6640   17.4750   31.0180 C.ar  283  TYR283      0.1957
    124  OH         5.7930   18.2500   30.9380 O.3   283  TYR283     -0.2866
    125  N          1.8750   15.8730   37.6340 N.3   287  GLU287     -0.1245
    126  CA         3.1850   16.3930   37.2440 C.3   287  GLU287      0.1567
    127  C          3.1120   17.8980   36.9910 C.2   287  GLU287      0.2260
    128  O          3.9520   18.6710   37.4780 O.2   287  GLU287     -0.2867
    129  CB         3.6800   15.7070   35.9690 C.3   287  GLU287      0.0388
    130  CG         4.1620   14.2890   36.1300 C.3   287  GLU287      0.1160
    131  CD         4.5050   13.6520   34.7860 C.2   287  GLU287      0.3649
    132  OE1        3.5700   13.1940   34.0860 O.co2 287  GLU287     -0.2457
    133  OE2        5.7020   13.6250   34.4240 O.co2 287  GLU287     -0.2457
    134  N          8.5510    7.7360   44.3740 N.3   373  TRP373     -0.1241
    135  CA         8.2170    8.3120   43.0830 C.3   373  TRP373      0.1605
    136  C          6.8920    7.8250   42.4970 C.2   373  TRP373      0.2264
    137  O          6.2460    8.5570   41.7460 O.2   373  TRP373     -0.2867
    138  CB         9.3370    8.0310   42.0760 C.3   373  TRP373      0.0550
    139  CG        10.4970    8.9680   42.1560 C.ar  373  TRP373      0.0003
    140  CD1       11.3900    9.1010   43.1870 C.ar  373  TRP373      0.0946
    141  CD2       10.9130    9.8890   41.1450 C.ar  373  TRP373      0.0152
    142  NE1       12.3340   10.0470   42.8740 N.ar  373  TRP373     -0.2442
    143  CE2       12.0630   10.5470   41.6260 C.ar  373  TRP373      0.0810
    144  CE3       10.4260   10.2180   39.8770 C.ar  373  TRP373      0.0012
    145  CZ2       12.7350   11.5210   40.8800 C.ar  373  TRP373      0.0191
    146  CZ3       11.0970   11.1890   39.1300 C.ar  373  TRP373      0.0001
    147  CH2       12.2380   11.8270   39.6350 C.ar  373  TRP373      0.0015
    148  N         20.8130    8.3460   34.6560 N.3   401  TYR401     -0.1241
    149  CA        20.9690    9.7960   34.6610 C.3   401  TYR401      0.1605
    150  C         22.3960   10.0180   34.1520 C.2   401  TYR401      0.2264
    151  O         23.2490    9.1540   34.3250 O.2   401  TYR401     -0.2867
    152  CB        20.8620   10.3610   36.0880 C.3   401  TYR401      0.0534
    153  CG        19.4910   10.3460   36.7170 C.ar  401  TYR401     -0.0201
    154  CD1       18.4080   10.9410   36.0770 C.ar  401  TYR401     -0.0009
    155  CD2       19.2850    9.7830   37.9800 C.ar  401  TYR401     -0.0009
    156  CE1       17.1470   10.9870   36.6640 C.ar  401  TYR401      0.0417
    157  CE2       18.0270    9.8210   38.5960 C.ar  401  TYR401      0.0417
    158  CZ        16.9660   10.4270   37.9240 C.ar  401  TYR401      0.1957
    159  OH        15.7100   10.4970   38.5070 O.3   401  TYR401     -0.2866
@<TRIPOS>BOND
     1    94    93    1
     2    93    90    1
     3    79    78    1
     4    79    80    1
     5    79    82    1
     6    92    91    2
     7    89    80   am
     8    89    90    1
     9    80    81    2
    10    90    91    1
    11    91    95   am
    12    98    97    2
    13   111   109   ar
    14   111   112   ar
    15    82    83    1
    16   109   106   ar
    17    95    96    1
    18    96    97    1
    19    31    30    2
    20    97    99   am
    21   112   110   ar
    22    30    29    1
    23    58    57    2
    24    51    50    2
    25    48    54    1
    26    48    49    1
    27    37    38    1
    28    83    85   ar
    29    83    84   ar
    30    50    49    1
    31    54    53    1
    32   106   104   ar
    33   106   108   ar
    34   103   104    1
    35   103   100    1
    36    40    39    2
    37    57    56    1
    38    85    87   ar
    39    99   100    1
    40   110   108   ar
    41    55    56    1
    42    84    86   ar
    43    29    32    1
    44    29    28    1
    45   104   105   ar
    46    49    52    1
    47    73    72    2
    48   100   101    1
    49   108   107   ar
    50    53    52    1
    51    38    39    1
    52    38    41    1
    53    56    59    1
    54    62    63    1
    55    32    33    1
    56    28    24   am
    57    87    88   ar
    58    41    42    1
    59    72    71    1
    60    63    64    1
    61    63    66    1
    62   105   107   ar
    63    86    88   ar
    64    22    23    1
    65    24    25    2
    66    24    23    1
    67   101   113   am
    68   101   102    2
    69    59    60    1
    70    59    61    1
    71    70    64   am
    72    70    71    1
    73    42    43    1
    74    64    65    2
    75    33    34    1
    76   113   114    1
    77    35    34    2
    78    23    26    1
    79    71    74    1
    80   122   120   ar
    81   122   123   ar
    82    34    36   am
    83   120   118   ar
    84    66    67    1
    85    74    75    1
    86    43    44    1
    87   124   123    1
    88   123   121   ar
    89    75    76    1
    90    69    67   am
    91   118   117    1
    92   118   119   ar
    93   114   117    1
    94   114   115    1
    95    67    68    2
    96    26    27    1
    97    44    45    2
    98   116   115    2
    99   121   119   ar
   100    76    77    1
   101    45    46    1
   102    45    47    1
   103    21    20    1
   104   132   131   ar
   105   150   151    2
   106   150   149    1
   107   133   131   ar
   108    20    17    1
   109   148   149    1
   110   149   152    1
   111   131   130    1
   112   129   130    1
   113   129   126    1
   114    17    18    1
   115    17    16    1
   116   154   156   ar
   117   154   153   ar
   118   152   153    1
   119    18    19    2
   120   156   158   ar
   121   153   155   ar
   122   127   126    1
   123   127   128    2
   124   126   125    1
   125   158   159    1
   126   158   157   ar
   127   155   157   ar
   128   146   147   ar
   129   146   144   ar
   130   147   145   ar
   131   144   141   ar
   132    15    13    1
   133   145   143   ar
   134    14    13    1
   135   141   143   ar
   136   141   139   ar
   137    13    12    1
   138   143   142   ar
   139   137   136    2
   140   138   139    1
   141   138   135    1
   142   139   140   ar
   143     4     3    2
   144     6     5    1
   145   136   135    1
   146    12     9    1
   147   142   140   ar
   148     9     8    1
   149     9    10    1
   150   135   134    1
   151     3     8   am
   152     3     2    1
   153     5     2    1
   154     5     7    1
   155    10    11    2
   156     2     1    1
