@<TRIPOS>MOLECULE
tmp/1rscK00.pdb
 161 151 0 0 0
SMALL
GASTEIGER

@<TRIPOS>ATOM
      1  N         57.5640   -0.0530   21.4620 N.3   165  THR165     -0.1218
      2  CA        57.1330    1.0010   20.5580 C.3   165  THR165      0.1862
      3  C         56.1900    1.9730   21.2540 C.2   165  THR165      0.2287
      4  O         55.1660    1.5740   21.8110 O.2   165  THR165     -0.2866
      5  CB        56.4420    0.4240   19.3210 C.3   165  THR165      0.1770
      6  OG1       57.2300   -0.6500   18.7980 O.3   165  THR165     -0.2211
      7  CG2       56.2840    1.4990   18.2560 C.3   165  THR165      0.0375
      8  N         53.3420    4.6260   21.8690 N.3   167  LYS167     -0.1245
      9  CA        51.9890    4.7910   21.3440 C.3   167  LYS167      0.1561
     10  C         51.3390    6.0220   21.9700 C.2   167  LYS167      0.2260
     11  O         51.8000    6.5080   23.0020 O.2   167  LYS167     -0.2867
     12  CB        51.1500    3.5420   21.6410 C.3   167  LYS167      0.0271
     13  CG        51.7790    2.2340   21.1660 C.3   167  LYS167      0.0035
     14  CD        51.7580    2.1120   19.6480 C.3   167  LYS167      0.0206
     15  CE        52.6320    0.9630   19.1780 C.3   167  LYS167      0.1093
     16  NZ        52.3750    0.5970   17.7600 N.3   167  LYS167     -0.1314
     17  N         50.6280    5.6540   17.7570 N.3   169  LYS169     -0.1245
     18  CA        51.5100    5.6960   16.5880 C.3   169  LYS169      0.1561
     19  C         51.8540    7.1270   16.1960 C.2   169  LYS169      0.2260
     20  O         53.0210    7.4660   16.0000 O.2   169  LYS169     -0.2867
     21  CB        50.8480    5.0080   15.3940 C.3   169  LYS169      0.0271
     22  CG        50.3600    3.5900   15.6480 C.3   169  LYS169      0.0035
     23  CD        49.7280    2.9910   14.4030 C.3   169  LYS169      0.0206
     24  CE        50.7640    2.7420   13.3240 C.3   169  LYS169      0.1093
     25  NZ        51.6700    1.6120   13.6770 N.3   169  LYS169     -0.1314
     26  N         61.2910    2.7300   20.7930 N.3   193  LYS193     -0.1245
     27  CA        61.3710    2.9810   19.3650 C.3   193  LYS193      0.1561
     28  C         60.2470    3.8270   18.8010 C.2   193  LYS193      0.2260
     29  O         59.1200    3.8040   19.2950 O.2   193  LYS193     -0.2867
     30  CB        61.4670    1.6630   18.5890 C.3   193  LYS193      0.0271
     31  CG        60.1700    0.9020   18.4230 C.3   193  LYS193      0.0035
     32  CD        60.3470   -0.2740   17.4750 C.3   193  LYS193      0.0206
     33  CE        60.2560    0.1520   16.0250 C.3   193  LYS193      0.1093
     34  NZ        58.8510    0.1510   15.5320 N.3   193  LYS193     -0.1314
     35  N         57.4490    4.5130   16.1410 N.3   195  ASP195     -0.1225
     36  CA        56.6520    3.7070   15.2340 C.3   195  ASP195      0.1805
     37  C         57.0840    3.9930   13.7990 C.2   195  ASP195      0.2597
     38  O         57.6600    5.0460   13.5070 O.2   195  ASP195     -0.2718
     39  CB        55.1960    3.6840   15.5190 C.3   195  ASP195      0.1424
     40  CG        54.5140    2.3210   15.4880 C.2   195  ASP195      0.3668
     41  OD1       55.1340    1.2970   15.0380 O.co2 195  ASP195     -0.2456
     42  OD2       53.2970    2.2160   15.9160 O.co2 195  ASP195     -0.2456
     43  N         56.8270    3.0390   12.9110 N.am  196  GLU196     -0.1979
     44  CA        57.3970    3.0910   11.5750 C.3   196  GLU196      0.1602
     45  C         56.9210    4.2870   10.7570 C.2   196  GLU196      0.2287
     46  O         57.6250    4.7360    9.8500 O.2   196  GLU196     -0.2864
     47  CB        57.1260    1.7860   10.8210 C.3   196  GLU196      0.0415
     48  CG        55.6690    1.5730   10.4900 C.3   196  GLU196      0.1163
     49  CD        54.9110    0.7740   11.5460 C.2   196  GLU196      0.3649
     50  OE1       55.5430    0.1160   12.4560 O.co2 196  GLU196     -0.2457
     51  OE2       53.6260    0.7650   11.5110 O.co2 196  GLU196     -0.2457
     52  N         62.9320   -1.9930   10.1990 N.3   286  HIS286     -0.1226
     53  CA        61.5050   -2.2540   10.1420 C.3   286  HIS286      0.1752
     54  C         61.1090   -2.7750    8.7540 C.2   286  HIS286      0.2595
     55  O         61.7130   -2.4060    7.7440 O.2   286  HIS286     -0.2718
     56  CB        60.7570   -0.9620   10.4660 C.3   286  HIS286      0.0759
     57  CG        59.4440   -1.1790   11.1440 C.ar  286  HIS286      0.0818
     58  ND1       58.2810   -1.4270   10.4440 N.ar  286  HIS286     -0.2268
     59  CD2       59.1110   -1.2190   12.4550 C.ar  286  HIS286      0.1154
     60  CE1       57.2910   -1.6200   11.2940 C.ar  286  HIS286      0.1986
     61  NE2       57.7680   -1.5000   12.5220 N.ar  286  HIS286     -0.2212
     62  N         60.1000   -3.6400    8.7090 N.am  287  ARG287     -0.1980
     63  CA        59.7500   -4.3480    7.4790 C.3   287  ARG287      0.1597
     64  C         58.3870   -3.9200    6.9220 C.2   287  ARG287      0.2287
     65  O         57.7310   -4.6930    6.2240 O.2   287  ARG287     -0.2864
     66  CB        59.7820   -5.8690    7.7240 C.3   287  ARG287      0.0334
     67  CG        58.4740   -6.4450    8.2490 C.3   287  ARG287      0.0492
     68  CD        58.6520   -7.4400    9.3650 C.3   287  ARG287      0.2205
     69  NE        58.5720   -8.8130    8.8900 N.pl3 287  ARG287     -0.0865
     70  CZ        57.7970   -9.7550    9.4220 C.cat 287  ARG287      0.5346
     71  NH1       56.8710   -9.4510   10.3250 N.pl3 287  ARG287      0.1354
     72  NH2       57.8760  -10.9940    8.9560 N.pl3 287  ARG287      0.1354
     73  N         55.7760   -5.3520    3.9280 N.3   290  HIS290     -0.1241
     74  CA        56.2420   -6.6720    3.5150 C.3   290  HIS290      0.1621
     75  C         55.0750   -7.6140    3.2140 C.2   290  HIS290      0.2264
     76  O         55.1270   -8.3880    2.2590 O.2   290  HIS290     -0.2867
     77  CB        57.1550   -7.2800    4.5870 C.3   290  HIS290      0.0745
     78  CG        56.4230   -7.8020    5.7850 C.ar  290  HIS290      0.0817
     79  ND1       56.3290   -9.1440    6.0720 N.ar  290  HIS290     -0.2268
     80  CD2       55.6650   -7.1680    6.7090 C.ar  290  HIS290      0.1154
     81  CE1       55.5250   -9.3200    7.1030 C.ar  290  HIS290      0.1986
     82  NE2       55.1110   -8.1340    7.5130 N.ar  290  HIS290     -0.2212
     83  N         62.6870   -7.0460   12.0010 N.3   319  HIS319     -0.1241
     84  CA        61.4130   -7.6200   12.4300 C.3   319  HIS319      0.1621
     85  C         61.1340   -8.9490   11.7350 C.2   319  HIS319      0.2264
     86  O         61.1360   -9.0300   10.5060 O.2   319  HIS319     -0.2867
     87  CB        60.2590   -6.6550   12.1540 C.3   319  HIS319      0.0745
     88  CG        60.2160   -5.4850   13.0880 C.ar  319  HIS319      0.0817
     89  ND1       59.0660   -5.0920   13.7380 N.ar  319  HIS319     -0.2268
     90  CD2       61.1710   -4.5980   13.4440 C.ar  319  HIS319      0.1154
     91  CE1       59.3180   -4.0090   14.4550 C.ar  319  HIS319      0.1986
     92  NE2       60.5860   -3.6860   14.2840 N.ar  319  HIS319     -0.2212
     93  N         58.4590  -11.1070   12.9050 N.3   321  GLY321     -0.1225
     94  CA        57.1570  -11.6010   13.3180 C.3   321  GLY321      0.1811
     95  C         57.1990  -12.2220   14.6990 C.2   321  GLY321      0.2280
     96  O         58.2730  -12.4440   15.2680 O.2   321  GLY321     -0.2866
     97  N         49.5620  -10.4670   17.0070 N.3   326  LYS326     -0.1231
     98  CA        48.4230  -10.0030   16.2150 C.3   326  LYS326      0.1693
     99  C         48.6230  -10.0990   14.6960 C.2   326  LYS326      0.2592
    100  O         47.6570  -10.0100   13.9330 O.2   326  LYS326     -0.2718
    101  CB        48.0740   -8.5610   16.5950 C.3   326  LYS326      0.0285
    102  CG        49.1220   -7.5420   16.1850 C.3   326  LYS326      0.0035
    103  CD        48.7680   -6.1500   16.6670 C.3   326  LYS326      0.0206
    104  CE        49.8430   -5.1450   16.2760 C.3   326  LYS326      0.1093
    105  NZ        49.5800   -3.8060   16.8680 N.3   326  LYS326     -0.1314
    106  N         49.8720  -10.2540   14.2600 N.am  327  LEU327     -0.1966
    107  CA        50.1880  -10.3330   12.8350 C.3   327  LEU327      0.1728
    108  C         50.6780  -11.7320   12.4760 C.2   327  LEU327      0.2616
    109  O         51.2820  -12.4180   13.3030 O.2   327  LEU327     -0.2715
    110  CB        51.2470   -9.2870   12.4670 C.3   327  LEU327      0.0311
    111  CG        50.8930   -7.8360   12.8080 C.3   327  LEU327      0.0022
    112  CD1       52.1090   -6.9590   12.6490 C.3   327  LEU327      0.0001
    113  CD2       49.7720   -7.3530   11.9150 C.3   327  LEU327      0.0001
    114  N         50.4470  -12.1310   11.2270 N.am  328  GLU328     -0.1977
    115  CA        50.6400  -13.5160   10.8110 C.3   328  GLU328      0.1602
    116  C         52.1000  -13.9370   10.7610 C.2   328  GLU328      0.2287
    117  O         52.9610  -13.2080   10.2700 O.2   328  GLU328     -0.2864
    118  CB        49.9940  -13.7580    9.4480 C.3   328  GLU328      0.0415
    119  CG        50.1200  -15.1960    8.9500 C.3   328  GLU328      0.1163
    120  CD        49.2530  -15.4680    7.7430 C.2   328  GLU328      0.3649
    121  OE1       48.0160  -15.5230    7.9060 O.co2 328  GLU328     -0.2457
    122  OE2       49.8010  -15.5780    6.6250 O.co2 328  GLU328     -0.2457
    123  N         57.6580   -8.4900   17.4040 N.3   371  SER371     -0.1202
    124  CA        56.9340   -7.2730   17.7380 C.3   371  SER371      0.2020
    125  C         55.5450   -7.3460   17.1260 C.2   371  SER371      0.2619
    126  O         55.3820   -7.8250   16.0020 O.2   371  SER371     -0.2717
    127  CB        57.6890   -6.0540   17.1920 C.3   371  SER371      0.2103
    128  OG        56.9450   -4.8540   17.3410 O.3   371  SER371     -0.2182
    129  N         54.5390   -7.0120   17.9260 N.am  372  GLY372     -0.1942
    130  CA        53.1820   -6.9400   17.4180 C.3   372  GLY372      0.2014
    131  C         52.1910   -7.7770   18.2030 C.2   372  GLY372      0.2639
    132  O         52.1170   -8.9930   18.0230 O.2   372  GLY372     -0.2714
    133  N         51.4630   -7.1270   19.1080 N.am  373  GLY373     -0.1939
    134  CA        50.3580   -7.7760   19.7920 C.3   373  GLY373      0.2014
    135  C         50.7790   -8.8110   20.8150 C.2   373  GLY373      0.2638
    136  O         50.0050   -9.7080   21.1360 O.2   373  GLY373     -0.2714
    137  N         51.9990   -8.6920   21.3330 N.am  374  ILE374     -0.1977
    138  CA        52.4680   -9.6130   22.3630 C.3   374  ILE374      0.1596
    139  C         52.4930   -8.9950   23.7650 C.2   374  ILE374      0.2287
    140  O         52.5680   -7.7750   23.9210 O.2   374  ILE374     -0.2864
    141  CB        53.8720  -10.1990   22.0250 C.3   374  ILE374      0.0276
    142  CG1       54.8400   -9.0900   21.6040 C.3   374  ILE374      0.0022
    143  CG2       53.7440  -11.2440   20.9350 C.3   374  ILE374      0.0022
    144  CD1       56.2810   -9.5510   21.4960 C.3   374  ILE374      0.0001
    145  N         59.6020   -7.1390   21.5850 N.3   393  GLN393     -0.1245
    146  CA        59.0900   -5.7790   21.6390 C.3   393  GLN393      0.1566
    147  C         57.6250   -5.7140   22.0220 C.2   393  GLN393      0.2260
    148  O         56.7690   -6.2900   21.3460 O.2   393  GLN393     -0.2867
    149  CB        59.3000   -5.0870   20.2980 C.3   393  GLN393      0.0367
    150  CG        60.2960   -3.9590   20.3560 C.3   393  GLN393      0.0905
    151  CD        60.9320   -3.6890   19.0250 C.2   393  GLN393      0.2608
    152  OE1       60.2610   -3.6890   17.9920 O.2   393  GLN393     -0.2717
    153  NE2       62.2410   -3.4640   19.0320 N.am  393  GLN393     -0.0878
    154  N         54.7490   -2.9710   22.6030 N.3   395  GLY395     -0.1210
    155  CA        54.2660   -1.6080   22.4880 C.3   395  GLY395      0.1956
    156  C         53.0790   -1.3900   23.4000 C.2   395  GLY395      0.2612
    157  O         53.2160   -0.8120   24.4780 O.2   395  GLY395     -0.2717
    158  N         51.9250   -1.9110   22.9920 N.am  396  GLY396     -0.1956
    159  CA        50.7580   -1.9010   23.8540 C.3   396  GLY396      0.1869
    160  C         50.9790   -2.7020   25.1260 C.2   396  GLY396      0.2309
    161  O         50.4230   -2.3770   26.1710 O.2   396  GLY396     -0.2863
@<TRIPOS>BOND
     1    76    75    2
     2    75    74    1
     3    74    73    1
     4    74    77    1
     5    77    78    1
     6    78    79   ar
     7    78    80   ar
     8    79    81   ar
     9    65    64    2
    10   122   120   ar
    11    80    82   ar
    12    64    63    1
    13    81    82   ar
    14    63    66    1
    15    63    62    1
    16    66    67    1
    17   120   121   ar
    18   120   119    1
    19    55    54    2
    20    67    68    1
    21    62    54   am
    22    54    53    1
    23    69    68    1
    24    69    70    2
    25   119   118    1
    26    72    70    1
    27    70    71    1
    28   118   115    1
    29    46    45    2
    30    53    52    1
    31    53    56    1
    32   117   116    2
    33    58    57   ar
    34    58    60   ar
    35    56    57    1
    36    48    47    1
    37    48    49    1
    38    86    85    2
    39    45    44    1
    40   116   115    1
    41   115   114    1
    42    47    44    1
    43    57    59   ar
    44   114   108   am
    45    60    61   ar
    46    51    49   ar
    47    49    50   ar
    48    44    43    1
    49    85    84    1
    50   113   111    1
    51    83    84    1
    52    87    84    1
    53    87    88    1
    54    59    61   ar
    55   110   111    1
    56   110   107    1
    57   108   107    1
    58   108   109    2
    59   112   111    1
    60   107   106    1
    61    93    94    1
    62    43    37   am
    63    88    90   ar
    64    88    89   ar
    65    94    95    1
    66    24    25    1
    67    24    23    1
    68    90    92   ar
    69    38    37    2
    70    89    91   ar
    71    37    36    1
    72   100    99    2
    73   106    99   am
    74    92    91   ar
    75    23    22    1
    76    99    98    1
    77    95    96    2
    78    41    40   ar
    79    36    39    1
    80    36    35    1
    81    21    22    1
    82    21    18    1
    83    40    39    1
    84    40    42   ar
    85    34    33    1
    86    20    19    2
    87   126   125    2
    88    33    32    1
    89   102   101    1
    90   102   103    1
    91    19    18    1
    92    98   101    1
    93    98    97    1
    94   104   103    1
    95   104   105    1
    96    18    17    1
    97   125   124    1
    98   125   129   am
    99   127   128    1
   100   127   124    1
   101   123   124    1
   102   130   129    1
   103   130   131    1
   104    32    31    1
   105    16    15    1
   106   152   151    2
   107   132   131    2
   108   131   133   am
   109     7     5    1
   110    31    30    1
   111    30    27    1
   112     6     5    1
   113    28    29    2
   114    28    27    1
   115   151   153   am
   116   151   150    1
   117   133   134    1
   118    15    14    1
   119     5     2    1
   120    27    26    1
   121    14    13    1
   122   134   135    1
   123   149   150    1
   124   149   146    1
   125     2     3    1
   126     2     1    1
   127   135   136    2
   128   135   137   am
   129   143   141    1
   130    13    12    1
   131     3     4    2
   132   137   138    1
   133     9    12    1
   134     9     8    1
   135     9    10    1
   136   148   147    2
   137   144   142    1
   138   145   146    1
   139   142   141    1
   140   146   147    1
   141    10    11    2
   142   141   138    1
   143   138   139    1
   144   155   154    1
   145   155   156    1
   146   158   156   am
   147   158   159    1
   148   156   157    2
   149   139   140    2
   150   159   160    1
   151   160   161    2
