@<TRIPOS>MOLECULE
tmp/1rsdA00.pdb
 101 98 0 0 0
SMALL
GASTEIGER

@<TRIPOS>ATOM
      1  N         49.4870   51.1650   72.5130 N.3    18  ALA18      -0.1231
      2  CA        50.7290   51.7490   72.9950 C.3    18  ALA18       0.1694
      3  C         51.7640   51.9810   71.8850 C.2    18  ALA18       0.2591
      4  O         52.7850   52.6520   72.1130 O.2    18  ALA18      -0.2718
      5  CB        51.3230   50.8660   74.0640 C.3    18  ALA18       0.0304
      6  N         51.4950   51.4350   70.6960 N.am   19  LEU19      -0.1980
      7  CA        52.3990   51.5460   69.5480 C.3    19  LEU19       0.1596
      8  C         51.9960   52.6670   68.5680 C.2    19  LEU19       0.2287
      9  O         50.8460   52.7380   68.1300 O.2    19  LEU19      -0.2864
     10  CB        52.4430   50.1820   68.8460 C.3    19  LEU19       0.0297
     11  CG        53.2590   49.8410   67.5950 C.3    19  LEU19       0.0022
     12  CD1       54.6230   50.5200   67.5800 C.3    19  LEU19       0.0001
     13  CD2       53.4260   48.3310   67.5740 C.3    19  LEU19       0.0001
     14  N         50.0200   51.8010   65.6170 N.3    22  GLU22      -0.1245
     15  CA        48.6420   51.4400   65.9070 C.3    22  GLU22       0.1567
     16  C         47.7980   52.7030   65.8790 C.2    22  GLU22       0.2260
     17  O         46.7390   52.7450   65.2610 O.2    22  GLU22      -0.2867
     18  CB        48.5280   50.8170   67.2940 C.3    22  GLU22       0.0388
     19  CG        48.8090   49.3310   67.3580 C.3    22  GLU22       0.1160
     20  CD        48.6110   48.7570   68.7600 C.2    22  GLU22       0.3649
     21  OE1       49.2840   49.2180   69.7120 O.co2  22  GLU22      -0.2457
     22  OE2       47.7800   47.8410   68.9110 O.co2  22  GLU22      -0.2457
     23  N         46.4220   54.5540   75.3620 N.3    71  ASN71      -0.1225
     24  CA        47.3370   53.4430   75.2080 C.3    71  ASN71       0.1785
     25  C         46.7200   52.0980   75.5070 C.2    71  ASN71       0.2597
     26  O         46.8340   51.1690   74.7130 O.2    71  ASN71      -0.2718
     27  CB        48.5580   53.6250   76.1120 C.3    71  ASN71       0.1169
     28  CG        49.2710   54.9380   75.8740 C.2    71  ASN71       0.2627
     29  OD1       49.5510   55.3150   74.7330 O.2    71  ASN71      -0.2716
     30  ND2       49.5710   55.6460   76.9530 N.am   71  ASN71      -0.0877
     31  N         46.0410   52.0040   76.6430 N.am   72  LEU72      -0.1966
     32  CA        45.4880   50.7360   77.0940 C.3    72  LEU72       0.1728
     33  C         44.0110   50.4090   77.0100 C.2    72  LEU72       0.2616
     34  O         43.1400   51.2610   77.1070 O.2    72  LEU72      -0.2715
     35  CB        45.9310   50.4970   78.5450 C.3    72  LEU72       0.0311
     36  CG        47.4040   50.7050   78.8940 C.3    72  LEU72       0.0022
     37  CD1       47.6810   50.2400   80.2930 C.3    72  LEU72       0.0001
     38  CD2       48.2530   49.9260   77.9340 C.3    72  LEU72       0.0001
     39  N         43.7550   49.1210   76.8480 N.am   73  LEU73      -0.1963
     40  CA        42.4000   48.6100   76.8120 C.3    73  LEU73       0.1728
     41  C         41.8740   48.7430   78.2330 C.2    73  LEU73       0.2616
     42  O         40.6800   48.9260   78.4390 O.2    73  LEU73      -0.2715
     43  CB        42.3950   47.1300   76.4130 C.3    73  LEU73       0.0311
     44  CG        42.8570   46.7420   75.0030 C.3    73  LEU73       0.0022
     45  CD1       42.5840   45.2720   74.7680 C.3    73  LEU73       0.0001
     46  CD2       42.1120   47.5630   73.9700 C.3    73  LEU73       0.0001
     47  N         42.7900   48.6420   79.2030 N.am   74  GLU74      -0.1977
     48  CA        42.4700   48.7380   80.6370 C.3    74  GLU74       0.1602
     49  C         41.8700   50.1050   80.9600 C.2    74  GLU74       0.2287
     50  O         40.9110   50.2170   81.7320 O.2    74  GLU74      -0.2864
     51  CB        43.7360   48.5110   81.4820 C.3    74  GLU74       0.0415
     52  CG        44.1890   47.0580   81.5720 C.3    74  GLU74       0.1163
     53  CD        45.1540   46.6900   80.4670 C.2    74  GLU74       0.3649
     54  OE1       45.1700   47.4200   79.4540 O.co2  74  GLU74      -0.2457
     55  OE2       45.8890   45.6870   80.6030 O.co2  74  GLU74      -0.2457
     56  N         40.9330   42.8590   71.1420 N.3   100  LYS100     -0.1245
     57  CA        41.6230   43.3210   69.9530 C.3   100  LYS100      0.1561
     58  C         41.7480   42.0000   69.1780 C.2   100  LYS100      0.2260
     59  O         42.5280   41.1240   69.5510 O.2   100  LYS100     -0.2867
     60  CB        43.0130   43.8540   70.3090 C.3   100  LYS100      0.0271
     61  CG        43.0930   45.3300   70.6650 C.3   100  LYS100      0.0035
     62  CD        44.5490   45.7170   70.8750 C.3   100  LYS100      0.0206
     63  CE        44.7590   47.2220   70.9660 C.3   100  LYS100      0.1093
     64  NZ        46.1990   47.5790   71.1730 N.3   100  LYS100     -0.1314
     65  N         45.6070   42.6090   66.8100 N.3   103  PRO103     -0.2103
     66  CA        46.6640   43.4520   67.3590 C.3   103  PRO103      0.1489
     67  C         47.9540   43.1860   66.5930 C.2   103  PRO103      0.2418
     68  O         48.0310   42.2570   65.7880 O.2   103  PRO103     -0.2734
     69  CB        46.7870   42.9550   68.7860 C.3   103  PRO103      0.0282
     70  CG        46.4980   41.4890   68.6470 C.3   103  PRO103      0.0208
     71  CD        45.3520   41.4410   67.6700 C.3   103  PRO103      0.0893
     72  N         48.9740   44.0220   66.8070 N.am  104  PRO104     -0.2718
     73  CA        50.2710   43.8700   66.1530 C.3   104  PRO104      0.1535
     74  C         51.0620   42.6790   66.6940 C.2   104  PRO104      0.2598
     75  O         52.2290   42.8240   67.0270 O.2   104  PRO104     -0.2715
     76  CB        50.9870   45.1860   66.4430 C.3   104  PRO104      0.0310
     77  CG        49.9480   46.1050   66.9610 C.3   104  PRO104      0.0237
     78  CD        48.9130   45.2500   67.6040 C.3   104  PRO104      0.0939
     79  N         50.4350   41.5070   66.7800 N.am  105  ILE105     -0.1964
     80  CA        51.1100   40.3040   67.2790 C.3   105  ILE105      0.1712
     81  C         51.2490   39.2530   66.1810 C.2   105  ILE105      0.2458
     82  O         50.2670   38.6530   65.7460 O.2   105  ILE105     -0.2730
     83  CB        50.3360   39.6530   68.4600 C.3   105  ILE105      0.0289
     84  CG1       50.2570   40.6170   69.6430 C.3   105  ILE105      0.0022
     85  CG2       51.0270   38.3850   68.9200 C.3   105  ILE105      0.0023
     86  CD1       49.2350   40.1980   70.6760 C.3   105  ILE105      0.0001
     87  N         52.4820   39.0110   65.7280 N.am  106  PRO106     -0.2727
     88  CA        52.7600   38.0330   64.6810 C.3   106  PRO106      0.1402
     89  C         52.3490   36.6590   65.0700 C.2   106  PRO106      0.2269
     90  O         53.1160   35.9160   65.6820 O.2   106  PRO106     -0.2865
     91  CB        54.2660   38.1130   64.4830 C.3   106  PRO106      0.0296
     92  CG        54.6080   39.3520   65.0020 C.3   106  PRO106      0.0237
     93  CD        53.7150   39.6640   66.1510 C.3   106  PRO106      0.0939
     94  N         41.1630   42.2840   77.5650 N.3   114  ILE114     -0.1245
     95  CA        41.0060   42.3300   79.0130 C.3   114  ILE114      0.1561
     96  C         39.5430   42.3840   79.3810 C.2   114  ILE114      0.2260
     97  O         38.6840   42.6460   78.5460 O.2   114  ILE114     -0.2867
     98  CB        41.7270   43.5710   79.6560 C.3   114  ILE114      0.0252
     99  CG1       41.2680   44.8730   79.0070 C.3   114  ILE114      0.0019
    100  CG2       43.2260   43.4600   79.4660 C.3   114  ILE114      0.0019
    101  CD1       40.1950   45.5980   79.7650 C.3   114  ILE114      0.0001
@<TRIPOS>BOND
     1    91    88    1
     2    91    92    1
     3    88    89    1
     4    88    87    1
     5    92    93    1
     6    89    90    2
     7    17    16    2
     8    14    15    1
     9    87    93    1
    10    87    81   am
    11    82    81    2
    12    68    67    2
    13    16    15    1
    14    15    18    1
    15    73    76    1
    16    73    74    1
    17    73    72    1
    18    81    80    1
    19    76    77    1
    20    67    72   am
    21    67    66    1
    22    74    79   am
    23    74    75    2
    24    79    80    1
    25    72    78    1
    26    65    66    1
    27    65    71    1
    28    77    78    1
    29    80    83    1
    30    18    19    1
    31    19    20    1
    32    66    69    1
    33    13    11    1
    34    12    11    1
    35    11    10    1
    36    71    70    1
    37     9     8    2
    38    83    85    1
    39    83    84    1
    40     8     7    1
    41    70    69    1
    42    20    22   ar
    43    20    21   ar
    44    10     7    1
    45    58    59    2
    46    58    57    1
    47     7     6    1
    48    84    86    1
    49    57    60    1
    50    57    56    1
    51    60    61    1
    52    61    62    1
    53     6     3   am
    54    62    63    1
    55    63    64    1
    56     3     4    2
    57     3     2    1
    58     1     2    1
    59     2     5    1
    60    46    44    1
    61    26    25    2
    62    29    28    2
    63    45    44    1
    64    44    43    1
    65    24    23    1
    66    24    25    1
    67    24    27    1
    68    25    31   am
    69    28    27    1
    70    28    30   am
    71    43    40    1
    72    31    32    1
    73    40    39    1
    74    40    41    1
    75    39    33   am
    76    33    32    1
    77    33    34    2
    78    32    35    1
    79    94    95    1
    80    38    36    1
    81    41    42    2
    82    41    47   am
    83    35    36    1
    84    97    96    2
    85    36    37    1
    86    99    98    1
    87    99   101    1
    88    95    96    1
    89    95    98    1
    90    47    48    1
    91    54    53   ar
    92   100    98    1
    93    53    55   ar
    94    53    52    1
    95    48    49    1
    96    48    51    1
    97    49    50    2
    98    51    52    1
