@<TRIPOS>MOLECULE
tmp/1rsiA00.pdb
 87 82 0 0 0
SMALL
GASTEIGER

@<TRIPOS>ATOM
      1  N         49.4570   51.1310   72.4110 N.3    18  ALA18      -0.1231
      2  CA        50.7090   51.6400   72.9480 C.3    18  ALA18       0.1694
      3  C         51.8000   51.8180   71.8870 C.2    18  ALA18       0.2591
      4  O         52.8730   52.3590   72.1720 O.2    18  ALA18      -0.2718
      5  CB        51.1930   50.7180   74.0540 C.3    18  ALA18       0.0304
      6  N         51.5350   51.3610   70.6680 N.am   19  LEU19      -0.1980
      7  CA        52.5080   51.4970   69.5900 C.3    19  LEU19       0.1596
      8  C         52.0970   52.6240   68.6460 C.2    19  LEU19       0.2287
      9  O         50.9400   52.7150   68.2580 O.2    19  LEU19      -0.2864
     10  CB        52.6250   50.1810   68.8210 C.3    19  LEU19       0.0297
     11  CG        53.2990   50.2200   67.4400 C.3    19  LEU19       0.0022
     12  CD1       54.6660   50.9020   67.5170 C.3    19  LEU19       0.0001
     13  CD2       53.4540   48.7990   66.9200 C.3    19  LEU19       0.0001
     14  N         50.1150   51.8270   65.6300 N.3    22  GLU22      -0.1245
     15  CA        48.7540   51.4680   66.0230 C.3    22  GLU22       0.1567
     16  C         47.8070   52.6690   65.9600 C.2    22  GLU22       0.2260
     17  O         46.7260   52.6100   65.3750 O.2    22  GLU22      -0.2867
     18  CB        48.7600   50.9280   67.4510 C.3    22  GLU22       0.0388
     19  CG        48.6150   49.4310   67.5780 C.3    22  GLU22       0.1160
     20  CD        48.5500   48.9590   69.0400 C.2    22  GLU22       0.3649
     21  OE1       49.4770   49.2760   69.8250 O.co2  22  GLU22      -0.2457
     22  OE2       47.5700   48.2640   69.3950 O.co2  22  GLU22      -0.2457
     23  N         46.1010   54.6490   75.4410 N.3    71  ASN71      -0.1225
     24  CA        47.0870   53.5790   75.3560 C.3    71  ASN71       0.1785
     25  C         46.4780   52.2050   75.5720 C.2    71  ASN71       0.2597
     26  O         46.4310   51.3700   74.6720 O.2    71  ASN71      -0.2718
     27  CB        48.1810   53.7610   76.4170 C.3    71  ASN71       0.1169
     28  CG        49.1760   54.8540   76.0760 C.2    71  ASN71       0.2627
     29  OD1       49.8190   54.8300   75.0280 O.2    71  ASN71      -0.2716
     30  ND2       49.3180   55.8170   76.9800 N.am   71  ASN71      -0.0877
     31  N         46.0090   51.9900   76.7920 N.am   72  LEU72      -0.1966
     32  CA        45.4680   50.7140   77.1950 C.3    72  LEU72       0.1728
     33  C         43.9790   50.4830   77.0310 C.2    72  LEU72       0.2616
     34  O         43.1690   51.4050   77.0470 O.2    72  LEU72      -0.2715
     35  CB        45.8680   50.4430   78.6500 C.3    72  LEU72       0.0311
     36  CG        47.2960   50.7950   79.0650 C.3    72  LEU72       0.0022
     37  CD1       47.6220   50.0870   80.3710 C.3    72  LEU72       0.0001
     38  CD2       48.2790   50.3790   77.9810 C.3    72  LEU72       0.0001
     39  N         43.6450   49.2110   76.8650 N.am   73  LEU73      -0.1963
     40  CA        42.2760   48.7650   76.7400 C.3    73  LEU73       0.1728
     41  C         41.7520   48.8410   78.1680 C.2    73  LEU73       0.2616
     42  O         40.5500   48.9070   78.3950 O.2    73  LEU73      -0.2715
     43  CB        42.2350   47.3070   76.2560 C.3    73  LEU73       0.0311
     44  CG        42.8340   46.9180   74.8950 C.3    73  LEU73       0.0022
     45  CD1       42.7850   45.4110   74.7060 C.3    73  LEU73       0.0001
     46  CD2       42.0480   47.6150   73.7880 C.3    73  LEU73       0.0001
     47  N         42.6820   48.8200   79.1240 N.am   74  GLU74      -0.1977
     48  CA        42.3570   48.8880   80.5530 C.3    74  GLU74       0.1602
     49  C         41.7910   50.2680   80.8610 C.2    74  GLU74       0.2287
     50  O         40.8930   50.4170   81.6910 O.2    74  GLU74      -0.2864
     51  CB        43.6100   48.6460   81.4100 C.3    74  GLU74       0.0415
     52  CG        43.9890   47.1850   81.5920 C.3    74  GLU74       0.1163
     53  CD        44.9440   46.6940   80.5070 C.2    74  GLU74       0.3649
     54  OE1       44.9310   47.2710   79.4000 O.co2  74  GLU74      -0.2457
     55  OE2       45.7110   45.7350   80.7520 O.co2  74  GLU74      -0.2457
     56  N         40.8480   42.9430   71.1670 N.3   100  LYS100     -0.1245
     57  CA        41.6360   43.3850   70.0270 C.3   100  LYS100      0.1561
     58  C         41.8020   42.0850   69.2380 C.2   100  LYS100      0.2260
     59  O         42.6490   41.2560   69.5570 O.2   100  LYS100     -0.2867
     60  CB        43.0050   43.8890   70.4790 C.3   100  LYS100      0.0271
     61  CG        43.1290   45.3860   70.6030 C.3   100  LYS100      0.0035
     62  CD        44.5020   45.7510   71.1440 C.3   100  LYS100      0.0206
     63  CE        44.6350   47.2440   71.3620 C.3   100  LYS100      0.1093
     64  NZ        46.0550   47.6620   71.4840 N.3   100  LYS100     -0.1314
     65  N         48.9250   44.2240   66.8020 N.3   104  PRO104     -0.2102
     66  CA        50.2020   44.0690   66.1040 C.3   104  PRO104      0.1504
     67  C         50.9960   42.9110   66.7100 C.2   104  PRO104      0.2575
     68  O         52.1340   43.1050   67.1440 O.2   104  PRO104     -0.2718
     69  CB        50.9130   45.4020   66.3300 C.3   104  PRO104      0.0282
     70  CG        49.8970   46.3140   66.9330 C.3   104  PRO104      0.0208
     71  CD        48.8990   45.4450   67.6200 C.3   104  PRO104      0.0893
     72  N         50.3940   41.7210   66.7550 N.am  105  ILE105     -0.1980
     73  CA        51.0550   40.5350   67.3100 C.3   105  ILE105      0.1595
     74  C         51.2640   39.4390   66.2490 C.2   105  ILE105      0.2287
     75  O         50.3070   38.8140   65.7840 O.2   105  ILE105     -0.2864
     76  CB        50.2410   39.9290   68.5080 C.3   105  ILE105      0.0276
     77  CG1       50.1670   40.9350   69.6570 C.3   105  ILE105      0.0022
     78  CG2       50.8980   38.6390   69.0210 C.3   105  ILE105      0.0022
     79  CD1       49.2220   40.5080   70.7610 C.3   105  ILE105      0.0001
     80  N         41.1380   42.3480   77.5750 N.3   114  ILE114     -0.1245
     81  CA        41.0410   42.4730   79.0140 C.3   114  ILE114      0.1561
     82  C         39.5670   42.5040   79.3650 C.2   114  ILE114      0.2260
     83  O         38.7090   42.6900   78.5030 O.2   114  ILE114     -0.2867
     84  CB        41.7250   43.7760   79.5150 C.3   114  ILE114      0.0252
     85  CG1       41.0650   45.0020   78.8900 C.3   114  ILE114      0.0019
     86  CG2       43.1850   43.7780   79.1190 C.3   114  ILE114      0.0019
     87  CD1       40.1260   45.7450   79.8110 C.3   114  ILE114      0.0001
@<TRIPOS>BOND
     1    17    16    2
     2    14    15    1
     3    75    74    2
     4    16    15    1
     5    15    18    1
     6    66    69    1
     7    66    67    1
     8    66    65    1
     9    74    73    1
    10    69    70    1
    11    67    72   am
    12    67    68    2
    13    72    73    1
    14    65    71    1
    15    13    11    1
    16    70    71    1
    17    73    76    1
    18    11    12    1
    19    11    10    1
    20    18    19    1
    21    19    20    1
    22     9     8    2
    23    76    78    1
    24    76    77    1
    25     8     7    1
    26    10     7    1
    27    20    22   ar
    28    20    21   ar
    29    58    59    2
    30    58    57    1
    31     7     6    1
    32    77    79    1
    33    57    60    1
    34    57    56    1
    35    60    61    1
    36    61    62    1
    37     6     3   am
    38    62    63    1
    39    63    64    1
    40     3     4    2
    41     3     2    1
    42     1     2    1
    43     2     5    1
    44    46    44    1
    45    26    25    2
    46    45    44    1
    47    44    43    1
    48    29    28    2
    49    24    23    1
    50    24    25    1
    51    24    27    1
    52    25    31   am
    53    28    27    1
    54    28    30   am
    55    43    40    1
    56    40    39    1
    57    40    41    1
    58    31    32    1
    59    39    33   am
    60    33    34    2
    61    33    32    1
    62    32    35    1
    63    80    81    1
    64    38    36    1
    65    41    42    2
    66    41    47   am
    67    83    82    2
    68    35    36    1
    69    85    84    1
    70    85    87    1
    71    81    82    1
    72    81    84    1
    73    36    37    1
    74    86    84    1
    75    47    48    1
    76    54    53   ar
    77    53    55   ar
    78    53    52    1
    79    48    49    1
    80    48    51    1
    81    49    50    2
    82    51    52    1
