@<TRIPOS>MOLECULE
tmp/1rsnA00.pdb
 124 121 0 0 0
SMALL
GASTEIGER

@<TRIPOS>ATOM
      1  N         64.6440    3.8340   21.8970 N.3    32  GLN32      -0.1301
      2  CA        63.2460    4.1410   21.6220 C.3    32  GLN32       0.1252
      3  C         62.7990    3.6390   20.2390 C.3    32  GLN32       0.2009
      4  O         61.5890    3.7260   20.0850 O.3    32  GLN32      -0.2188
      5  CB        62.8930    5.6130   21.6640 C.3    32  GLN32       0.0314
      6  CG        63.3030    6.2460   22.9770 C.3    32  GLN32       0.0901
      7  CD        64.7590    6.6680   22.9920 C.2    32  GLN32       0.2608
      8  OE1       65.5760    6.4230   22.1240 O.2    32  GLN32      -0.2717
      9  NE2       65.2070    7.3920   24.0130 N.am   32  GLN32      -0.0878
     10  N         59.2620    1.3090   19.3400 N.3    35  VAL35      -0.1231
     11  CA        58.1700    1.2850   20.3330 C.3    35  VAL35       0.1692
     12  C         56.8300    1.5630   19.6070 C.2    35  VAL35       0.2592
     13  O         56.8080    2.1040   18.4750 O.2    35  VAL35      -0.2718
     14  CB        58.3980    2.1740   21.5460 C.3    35  VAL35       0.0266
     15  CG1       59.8200    1.8280   22.0610 C.3    35  VAL35       0.0020
     16  CG2       58.1980    3.6090   21.2690 C.3    35  VAL35       0.0020
     17  N         55.7490    1.2160   20.2680 N.am   36  VAL36      -0.1966
     18  CA        54.4090    1.4710   19.6530 C.3    36  VAL36       0.1727
     19  C         54.1670    2.9710   19.4930 C.2    36  VAL36       0.2616
     20  O         54.5170    3.7880   20.3570 O.2    36  VAL36      -0.2715
     21  CB        53.3060    0.7820   20.5540 C.3    36  VAL36       0.0290
     22  CG1       51.9150    1.1250   20.0400 C.3    36  VAL36       0.0023
     23  CG2       53.4570   -0.7190   20.4590 C.3    36  VAL36       0.0023
     24  N         53.6000    3.3770   18.3670 N.am   37  PHE37      -0.1960
     25  CA        53.1560    4.7110   18.0800 C.3    37  PHE37       0.1771
     26  C         51.6430    4.5820   18.3450 C.2    37  PHE37       0.2619
     27  O         50.9070    3.8030   17.6700 O.2    37  PHE37      -0.2715
     28  CB        53.4890    5.0740   16.6280 C.3    37  PHE37       0.0574
     29  CG        52.8780    6.4330   16.3320 C.ar   37  PHE37      -0.0200
     30  CD1       53.4280    7.5450   16.9310 C.ar   37  PHE37      -0.0042
     31  CD2       51.8190    6.5580   15.4520 C.ar   37  PHE37      -0.0042
     32  CE1       52.8640    8.8180   16.6870 C.ar   37  PHE37      -0.0003
     33  CE2       51.2680    7.7940   15.1960 C.ar   37  PHE37      -0.0003
     34  CZ        51.7850    8.9250   15.8580 C.ar   37  PHE37      -0.0000
     35  N         51.0430    5.2740   19.2660 N.am   38  GLN38      -0.1963
     36  CA        49.6570    5.1540   19.6240 C.3    38  GLN38       0.1733
     37  C         48.6630    5.8210   18.7190 C.2    38  GLN38       0.2616
     38  O         47.4580    5.5220   18.8360 O.2    38  GLN38      -0.2715
     39  CB        49.3710    5.8060   21.0030 C.3    38  GLN38       0.0408
     40  CG        50.0000    5.0380   22.1160 C.3    38  GLN38       0.0908
     41  CD        49.7090    5.7380   23.4490 C.2    38  GLN38       0.2608
     42  OE1       48.5900    6.1940   23.6160 O.2    38  GLN38      -0.2717
     43  NE2       50.7250    5.8510   24.2670 N.am   38  GLN38      -0.0878
     44  N         49.1180    6.7150   17.8600 N.am   39  ASN39      -0.1958
     45  CA        48.2140    7.4840   16.9880 C.3    39  ASN39       0.1819
     46  C         47.1660    8.1460   17.8480 C.2    39  ASN39       0.2621
     47  O         45.9710    8.2110   17.5040 O.2    39  ASN39      -0.2715
     48  CB        47.5470    6.5400   15.9490 C.3    39  ASN39       0.1195
     49  CG        46.7820    7.1490   14.8290 C.2    39  ASN39       0.2630
     50  OD1       47.3170    8.1870   14.4790 O.2    39  ASN39      -0.2716
     51  ND2       45.6600    6.6310   14.3520 N.am   39  ASN39      -0.0877
     52  N         47.5790    8.7800   18.9150 N.am   40  ARG40      -0.1963
     53  CA        46.6940    9.4390   19.8660 C.3    40  ARG40       0.1729
     54  C         45.9460   10.6260   19.2840 C.2    40  ARG40       0.2616
     55  O         44.7550   10.8090   19.6240 O.2    40  ARG40      -0.2715
     56  CB        47.5420    9.7690   21.1050 C.3    40  ARG40       0.0348
     57  CG        46.7030   10.2830   22.2440 C.3    40  ARG40       0.0492
     58  CD        47.6680   10.3500   23.4580 C.3    40  ARG40       0.2205
     59  NE        47.3090    9.2630   24.3290 N.pl3  40  ARG40      -0.0865
     60  CZ        46.3440    8.8430   25.1430 C.cat  40  ARG40       0.5346
     61  NH1       45.1950    9.4380   25.4850 N.pl3  40  ARG40       0.1354
     62  NH2       46.5970    7.6180   25.6930 N.pl3  40  ARG40       0.1354
     63  N         46.6270   11.3170   18.3700 N.am   41  GLU41      -0.1977
     64  CA        46.0080   12.4760   17.6980 C.3    41  GLU41       0.1602
     65  C         45.0780   12.1160   16.5950 C.2    41  GLU41       0.2287
     66  O         44.4360   13.0260   16.0570 O.2    41  GLU41      -0.2864
     67  CB        47.1120   13.3970   17.1840 C.3    41  GLU41       0.0415
     68  CG        47.9100   13.9310   18.3660 C.3    41  GLU41       0.1163
     69  CD        48.9590   13.0180   18.9580 C.2    41  GLU41       0.3649
     70  OE1       49.6760   12.2420   18.3080 O.co2  41  GLU41      -0.2457
     71  OE2       48.9870   13.0750   20.2190 O.co2  41  GLU41      -0.2457
     72  N         57.0800    3.2890   15.8020 N.3    54  GLU54      -0.1245
     73  CA        57.8670    4.4500   15.3620 C.3    54  GLU54       0.1567
     74  C         59.3610    4.1580   15.5010 C.2    54  GLU54       0.2260
     75  O         59.9370    3.4710   16.3420 O.2    54  GLU54      -0.2867
     76  CB        57.6200    5.7040   16.1420 C.3    54  GLU54       0.0388
     77  CG        57.7080    5.6730   17.5960 C.3    54  GLU54       0.1160
     78  CD        59.0930    6.0350   18.1100 C.2    54  GLU54       0.3649
     79  OE1       59.9470    6.5690   17.3890 O.co2  54  GLU54      -0.2457
     80  OE2       59.4310    5.6880   19.2320 O.co2  54  GLU54      -0.2457
     81  N         67.1300   12.9280   19.1390 N.3    65  ARG65      -0.1245
     82  CA        66.4540   12.1720   18.1300 C.3    65  ARG65       0.1563
     83  C         65.8160   13.0680   17.0710 C.2    65  ARG65       0.2260
     84  O         65.4000   12.6190   16.0190 O.2    65  ARG65      -0.2867
     85  CB        65.4310   11.2330   18.7540 C.3    65  ARG65       0.0307
     86  CG        66.0980   10.0940   19.4790 C.3    65  ARG65       0.0489
     87  CD        65.0540    9.1550   20.1550 C.3    65  ARG65       0.2205
     88  NE        64.2980    8.4940   19.1900 N.pl3  65  ARG65      -0.0865
     89  CZ        62.9910    8.3110   19.1480 C.cat  65  ARG65       0.5346
     90  NH1       62.1160    8.7060   20.0560 N.pl3  65  ARG65       0.1354
     91  NH2       62.5350    7.6240   18.1040 N.pl3  65  ARG65       0.1354
     92  N         60.7970   10.8340   11.6510 N.3    69  ARG69      -0.1245
     93  CA        60.5350    9.4710   12.0530 C.3    69  ARG69       0.1563
     94  C         59.8990    8.6940   10.9310 C.2    69  ARG69       0.2260
     95  O         59.3550    9.3540    9.9970 O.2    69  ARG69      -0.2867
     96  CB        59.4110    9.4220   13.1450 C.3    69  ARG69       0.0307
     97  CG        59.6730   10.2880   14.3660 C.3    69  ARG69       0.0489
     98  CD        60.6090    9.4670   15.2750 C.3    69  ARG69       0.2205
     99  NE        60.7550   10.1990   16.5580 N.pl3  69  ARG69      -0.0865
    100  CZ        61.6280   11.1810   16.7990 C.cat  69  ARG69       0.5346
    101  NH1       62.5280   11.6160   15.8880 N.pl3  69  ARG69       0.1354
    102  NH2       61.7590   11.7880   17.9860 N.pl3  69  ARG69       0.1354
    103  N         57.8990   15.9200   13.5700 N.3    85  HIS85      -0.1226
    104  CA        57.5640   15.2600   14.8240 C.3    85  HIS85       0.1752
    105  C         56.0660   14.9990   14.9500 C.2    85  HIS85       0.2596
    106  O         55.4550   15.3840   15.9570 O.2    85  HIS85      -0.2718
    107  CB        58.1330   16.0630   16.0300 C.3    85  HIS85       0.0759
    108  CG        58.2560   15.3240   17.3170 C.ar   85  HIS85       0.0818
    109  ND1       57.2350   15.1630   18.2330 N.ar   85  HIS85      -0.2268
    110  CD2       59.3250   14.6880   17.8650 C.ar   85  HIS85       0.1154
    111  CE1       57.6730   14.4400   19.2300 C.ar   85  HIS85       0.1986
    112  NE2       58.9480   14.1740   19.0590 N.ar   85  HIS85      -0.2212
    113  N         55.4940   14.2840   13.9760 N.am   86  TYR86      -0.1976
    114  CA        54.1190   13.7750   13.9200 C.3    86  TYR86       0.1639
    115  C         53.0060   14.7590   13.6230 C.2    86  TYR86       0.2290
    116  O         51.8760   14.3530   13.8380 O.2    86  TYR86      -0.2864
    117  CB        53.7690   13.0370   15.2290 C.3    86  TYR86       0.0560
    118  CG        54.7930   12.0080   15.7120 C.ar   86  TYR86      -0.0198
    119  CD1       55.1300   10.8780   14.9880 C.ar   86  TYR86      -0.0009
    120  CD2       55.4200   12.1950   16.9620 C.ar   86  TYR86      -0.0009
    121  CE1       56.0990   10.0280   15.4840 C.ar   86  TYR86       0.0417
    122  CE2       56.4100   11.3610   17.4590 C.ar   86  TYR86       0.0417
    123  CZ        56.7110   10.2510   16.6890 C.ar   86  TYR86       0.1957
    124  OH        57.6770    9.3960   17.1140 O.3    86  TYR86      -0.2866
@<TRIPOS>BOND
     1    95    94    2
     2    94    93    1
     3    92    93    1
     4    93    96    1
     5    96    97    1
     6   103   104    1
     7   115   116    2
     8   115   114    1
     9   114   113    1
    10   114   117    1
    11   113   105   am
    12    51    49   am
    13    97    98    1
    14    50    49    2
    15   104   105    1
    16   104   107    1
    17    49    48    1
    18   105   106    2
    19   119   121   ar
    20   119   118   ar
    21    33    31   ar
    22    33    34   ar
    23   117   118    1
    24    98    99    1
    25    73    74    1
    26    73    72    1
    27    73    76    1
    28    31    29   ar
    29   121   123   ar
    30    74    75    2
    31   118   120   ar
    32    34    32   ar
    33   101   100    1
    34    48    45    1
    35    84    83    2
    36   107   108    1
    37    66    65    2
    38    76    77    1
    39    29    28    1
    40    29    30   ar
    41    99   100    2
    42    65    64    1
    43    28    25    1
    44    32    30   ar
    45   123   124    1
    46   123   122   ar
    47   100   102    1
    48   120   122   ar
    49    45    46    1
    50    45    44    1
    51    83    82    1
    52    67    64    1
    53    67    68    1
    54   108   110   ar
    55   108   109   ar
    56    79    78   ar
    57    47    46    2
    58    77    78    1
    59    27    26    2
    60    64    63    1
    61    46    52   am
    62    44    37   am
    63   110   112   ar
    64    25    26    1
    65    25    24    1
    66    91    89    1
    67    78    80   ar
    68    82    85    1
    69    82    81    1
    70   109   111   ar
    71    70    69   ar
    72    26    35   am
    73    68    69    1
    74    24    19   am
    75    63    54   am
    76    13    12    2
    77    37    38    2
    78    37    36    1
    79    85    86    1
    80    52    53    1
    81    69    71   ar
    82   112   111   ar
    83    89    88    2
    84    89    90    1
    85    88    87    1
    86    35    36    1
    87    54    55    2
    88    54    53    1
    89    10    11    1
    90    86    87    1
    91    19    18    1
    92    19    20    2
    93    12    17   am
    94    12    11    1
    95    36    39    1
    96    18    17    1
    97    18    21    1
    98    53    56    1
    99    22    21    1
   100     4     3    1
   101     3     2    1
   102    11    14    1
   103    23    21    1
   104    39    40    1
   105    56    57    1
   106    16    14    1
   107    14    15    1
   108     2     5    1
   109     2     1    1
   110     5     6    1
   111    40    41    1
   112     8     7    2
   113    57    58    1
   114     6     7    1
   115     7     9   am
   116    41    42    2
   117    41    43   am
   118    58    59    1
   119    59    60    2
   120    60    61    1
   121    60    62    1
