@<TRIPOS>MOLECULE
tmp/1rt4A00.pdb
 159 158 0 0 0
SMALL
GASTEIGER

@<TRIPOS>ATOM
      1  N          7.1280  -30.0150   26.0730 N.3    95  PRO95      -0.2116
      2  CA         6.5650  -30.0860   24.7240 C.3    95  PRO95       0.1372
      3  C          5.6370  -28.8980   24.5240 C.2    95  PRO95       0.2244
      4  O          4.8120  -28.6050   25.3890 O.2    95  PRO95      -0.2868
      5  CB         5.7620  -31.3890   24.7600 C.3    95  PRO95       0.0268
      6  CG         6.4700  -32.2100   25.8030 C.3    95  PRO95       0.0207
      7  CD         6.7450  -31.1920   26.8690 C.3    95  PRO95       0.0892
      8  N          2.4230  -31.0670   19.1640 N.3   100  LEU100     -0.1231
      9  CA         1.6650  -32.2830   19.4550 C.3   100  LEU100      0.1693
     10  C          0.8530  -32.7140   18.2230 C.2   100  LEU100      0.2591
     11  O          0.6990  -31.9460   17.2650 O.2   100  LEU100     -0.2718
     12  CB         0.7130  -32.0510   20.6390 C.3   100  LEU100      0.0284
     13  CG         1.2980  -31.6950   22.0120 C.3   100  LEU100      0.0019
     14  CD1        0.1730  -31.5450   23.0120 C.3   100  LEU100      0.0001
     15  CD2        2.2790  -32.7540   22.4950 C.3   100  LEU100      0.0001
     16  N          0.3230  -33.9350   18.2610 N.am  101  LYS101     -0.1980
     17  CA        -0.4870  -34.4820   17.1690 C.3   101  LYS101      0.1596
     18  C         -1.8370  -34.8510   17.7830 C.2   101  LYS101      0.2287
     19  O         -1.8970  -35.1750   18.9690 O.2   101  LYS101     -0.2864
     20  CB         0.1890  -35.7310   16.6020 C.3   101  LYS101      0.0298
     21  CG         1.6470  -35.5170   16.2310 C.3   101  LYS101      0.0038
     22  CD         2.4190  -36.8250   16.2170 C.3   101  LYS101      0.0206
     23  CE         3.9100  -36.5860   16.4400 C.3   101  LYS101      0.1093
     24  NZ         4.1930  -35.9460   17.7660 N.3   101  LYS101     -0.1314
     25  N         -5.1450  -36.9050   18.9240 N.3   103  LYS103     -0.1245
     26  CA        -5.4060  -38.2860   19.3350 C.3   103  LYS103      0.1561
     27  C         -6.8990  -38.4830   19.5900 C.2   103  LYS103      0.2260
     28  O         -7.5720  -37.5740   20.0870 O.2   103  LYS103     -0.2867
     29  CB        -4.6310  -38.6260   20.6160 C.3   103  LYS103      0.0271
     30  CG        -3.1230  -38.5320   20.4840 C.3   103  LYS103      0.0035
     31  CD        -2.6290  -39.4030   19.3450 C.3   103  LYS103      0.0206
     32  CE        -1.1830  -39.1180   19.0070 C.3   103  LYS103      0.1093
     33  NZ        -0.7750  -39.7740   17.7350 N.3   103  LYS103     -0.1314
     34  N         -7.1710  -39.2870   25.1610 N.3   106  VAL106     -0.1245
     35  CA        -5.9970  -39.1220   26.0110 C.3   106  VAL106      0.1561
     36  C         -6.4540  -39.3040   27.4560 C.2   106  VAL106      0.2260
     37  O         -7.5260  -38.8360   27.8330 O.2   106  VAL106     -0.2867
     38  CB        -5.3570  -37.7130   25.8660 C.3   106  VAL106      0.0252
     39  CG1       -4.0320  -37.6710   26.6120 C.3   106  VAL106      0.0019
     40  CG2       -5.1590  -37.3440   24.3930 C.3   106  VAL106      0.0019
     41  N          0.9280  -43.7260   22.7960 N.3   174  VAL174     -0.1231
     42  CA         1.8340  -42.6470   23.1830 C.3   174  VAL174      0.1692
     43  C          1.7480  -42.2900   24.6650 C.2   174  VAL174      0.2592
     44  O          0.6960  -41.8930   25.1660 O.2   174  VAL174     -0.2718
     45  CB         1.5640  -41.3700   22.3730 C.3   174  VAL174      0.0266
     46  CG1        2.4700  -40.2620   22.8440 C.3   174  VAL174      0.0020
     47  CG2        1.7810  -41.6290   20.8910 C.3   174  VAL174      0.0020
     48  N          2.8710  -42.4110   25.3560 N.am  175  ILE175     -0.1966
     49  CA         2.9340  -42.0840   26.7680 C.3   175  ILE175      0.1727
     50  C          3.8590  -40.8800   26.9120 C.2   175  ILE175      0.2616
     51  O          4.7820  -40.6950   26.1160 O.2   175  ILE175     -0.2715
     52  CB         3.5050  -43.2610   27.5790 C.3   175  ILE175      0.0290
     53  CG1        2.7210  -44.5340   27.2710 C.3   175  ILE175      0.0022
     54  CG2        3.4330  -42.9650   29.0700 C.3   175  ILE175      0.0023
     55  CD1        3.3180  -45.7760   27.8930 C.3   175  ILE175      0.0001
     56  N          3.5750  -40.0370   27.8930 N.am  176  TYR176     -0.1974
     57  CA         4.3900  -38.8610   28.1570 C.3   176  TYR176      0.1639
     58  C          4.3920  -38.6250   29.6530 C.2   176  TYR176      0.2290
     59  O          3.3410  -38.4040   30.2620 O.2   176  TYR176     -0.2864
     60  CB         3.8420  -37.6240   27.4460 C.3   176  TYR176      0.0560
     61  CG         4.4670  -36.3430   27.9540 C.ar  176  TYR176     -0.0198
     62  CD1        5.8500  -36.1490   27.9010 C.ar  176  TYR176     -0.0009
     63  CD2        3.6820  -35.3400   28.5280 C.ar  176  TYR176     -0.0009
     64  CE1        6.4350  -34.9900   28.4110 C.ar  176  TYR176      0.0417
     65  CE2        4.2560  -34.1770   29.0400 C.ar  176  TYR176      0.0417
     66  CZ         5.6310  -34.0110   28.9780 C.ar  176  TYR176      0.1957
     67  OH         6.1960  -32.8640   29.4780 O.3   176  TYR176     -0.2866
     68  N          0.6550  -39.0410   30.9070 N.3   183  TYR183     -0.1227
     69  CA        -0.2770  -38.7740   29.8150 C.3   183  TYR183      0.1736
     70  C         -0.1800  -39.8440   28.7480 C.2   183  TYR183      0.2595
     71  O          0.8880  -40.0650   28.1730 O.2   183  TYR183     -0.2718
     72  CB        -0.0040  -37.4020   29.2040 C.3   183  TYR183      0.0548
     73  CG        -0.1900  -36.2760   30.1920 C.ar  183  TYR183     -0.0200
     74  CD1        0.7430  -36.0520   31.2070 C.ar  183  TYR183     -0.0009
     75  CD2       -1.3130  -35.4510   30.1330 C.ar  183  TYR183     -0.0009
     76  CE1        0.5610  -35.0400   32.1350 C.ar  183  TYR183      0.0417
     77  CE2       -1.5050  -34.4340   31.0610 C.ar  183  TYR183      0.0417
     78  CZ        -0.5640  -34.2350   32.0580 C.ar  183  TYR183      0.1957
     79  OH        -0.7480  -33.2350   32.9820 O.3   183  TYR183     -0.2866
     80  N         -1.2950  -40.5180   28.4970 N.am  184  VAL184     -0.1966
     81  CA        -1.3380  -41.5810   27.5020 C.3   184  VAL184      0.1727
     82  C         -2.4020  -41.3030   26.4370 C.2   184  VAL184      0.2616
     83  O         -3.5800  -41.1390   26.7550 O.2   184  VAL184     -0.2715
     84  CB        -1.6240  -42.9360   28.1630 C.3   184  VAL184      0.0290
     85  CG1       -1.3400  -44.0530   27.1840 C.3   184  VAL184      0.0023
     86  CG2       -0.7920  -43.0960   29.4330 C.3   184  VAL184      0.0023
     87  N         -1.9870  -41.2620   25.1760 N.am  185  GLY185     -0.1955
     88  CA        -2.9190  -40.9950   24.0940 C.3   185  GLY185      0.1869
     89  C         -2.8990  -42.0730   23.0280 C.2   185  GLY185      0.2309
     90  O         -2.0230  -42.9460   23.0390 O.2   185  GLY185     -0.2863
     91  N         -9.4670  -34.8930   29.4950 N.3   220  PRO220     -0.2116
     92  CA        -9.4240  -33.5910   28.8220 C.3   220  PRO220      0.1372
     93  C        -10.6670  -32.7680   29.1430 C.2   220  PRO220      0.2244
     94  O        -11.7070  -33.3250   29.4950 O.2   220  PRO220     -0.2868
     95  CB        -9.4030  -33.9760   27.3460 C.3   220  PRO220      0.0268
     96  CG        -8.6920  -35.2840   27.3520 C.3   220  PRO220      0.0207
     97  CD        -9.3400  -35.9840   28.5130 C.3   220  PRO220      0.0892
     98  N         -7.0920  -30.4240   29.0790 N.3   222  PHE222     -0.1241
     99  CA        -5.9260  -30.4120   29.9440 C.3   222  PHE222      0.1605
    100  C         -5.3310  -29.0150   29.9650 C.2   222  PHE222      0.2264
    101  O         -5.0980  -28.4210   28.9140 O.2   222  PHE222     -0.2867
    102  CB        -4.8790  -31.4150   29.4490 C.3   222  PHE222      0.0534
    103  CG        -5.2510  -32.8510   29.6850 C.ar  222  PHE222     -0.0203
    104  CD1       -5.7440  -33.2630   30.9200 C.ar  222  PHE222     -0.0042
    105  CD2       -5.0770  -33.7990   28.6820 C.ar  222  PHE222     -0.0042
    106  CE1       -6.0550  -34.6020   31.1590 C.ar  222  PHE222     -0.0003
    107  CE2       -5.3850  -35.1400   28.9090 C.ar  222  PHE222     -0.0003
    108  CZ        -5.8760  -35.5420   30.1540 C.ar  222  PHE222     -0.0000
    109  N         -2.4130  -26.8850   30.1320 N.3   224  TRP224     -0.1241
    110  CA        -0.9710  -27.0180   29.9710 C.3   224  TRP224      0.1605
    111  C         -0.2840  -25.6800   29.8230 C.2   224  TRP224      0.2264
    112  O         -0.1980  -25.1250   28.7240 O.2   224  TRP224     -0.2867
    113  CB        -0.6370  -27.9070   28.7770 C.3   224  TRP224      0.0550
    114  CG         0.8090  -28.2960   28.7000 C.ar  224  TRP224      0.0003
    115  CD1        1.6910  -27.9830   27.7070 C.ar  224  TRP224      0.0946
    116  CD2        1.5280  -29.1120   29.6330 C.ar  224  TRP224      0.0152
    117  NE1        2.9110  -28.5630   27.9580 N.ar  224  TRP224     -0.2442
    118  CE2        2.8400  -29.2610   29.1320 C.ar  224  TRP224      0.0810
    119  CE3        1.1900  -29.7370   30.8440 C.ar  224  TRP224      0.0012
    120  CZ2        3.8210  -30.0150   29.7980 C.ar  224  TRP224      0.0191
    121  CZ3        2.1640  -30.4850   31.5090 C.ar  224  TRP224      0.0001
    122  CH2        3.4630  -30.6160   30.9810 C.ar  224  TRP224      0.0015
    123  N         -5.6230  -27.8220   26.3910 N.3   229  LEU229     -0.1231
    124  CA        -5.4960  -28.9440   25.4740 C.3   229  LEU229      0.1693
    125  C         -6.7260  -29.8480   25.2860 C.2   229  LEU229      0.2592
    126  O         -7.3000  -30.3630   26.2570 O.2   229  LEU229     -0.2718
    127  CB        -4.2870  -29.7850   25.8940 C.3   229  LEU229      0.0284
    128  CG        -2.8940  -29.3850   25.3920 C.3   229  LEU229      0.0019
    129  CD1       -2.6510  -27.8980   25.5190 C.3   229  LEU229      0.0001
    130  CD2       -1.8460  -30.1600   26.1560 C.3   229  LEU229      0.0001
    131  N         -7.1430  -30.0020   24.0320 N.am  230  HIS230     -0.1962
    132  CA        -8.2640  -30.8670   23.6790 C.3   230  HIS230      0.1772
    133  C         -7.6810  -31.8560   22.6780 C.2   230  HIS230      0.2462
    134  O         -6.8070  -31.4990   21.8890 O.2   230  HIS230     -0.2730
    135  CB        -9.4040  -30.0880   23.0130 C.3   230  HIS230      0.0785
    136  CG       -10.0380  -29.0580   23.8940 C.ar  230  HIS230      0.0821
    137  ND1      -11.0940  -28.2760   23.4760 N.ar  230  HIS230     -0.2267
    138  CD2       -9.7650  -28.6750   25.1600 C.ar  230  HIS230      0.1154
    139  CE1      -11.4420  -27.4530   24.4490 C.ar  230  HIS230      0.1986
    140  NE2      -10.6520  -27.6740   25.4830 N.ar  230  HIS230     -0.2212
    141  N         -8.1800  -33.1020   22.6730 N.am  231  PRO231     -0.2727
    142  CA        -7.7160  -34.1640   21.7730 C.3   231  PRO231      0.1402
    143  C         -7.6300  -33.8100   20.2890 C.2   231  PRO231      0.2269
    144  O         -6.9130  -34.4690   19.5350 O.2   231  PRO231     -0.2865
    145  CB        -8.7310  -35.2760   22.0220 C.3   231  PRO231      0.0296
    146  CG        -9.0350  -35.1110   23.4730 C.3   231  PRO231      0.0237
    147  CD        -9.2200  -33.6160   23.5830 C.3   231  PRO231      0.0939
    148  N         -3.2360  -29.0330   15.8250 N.3   312  TYR312     -0.1241
    149  CA        -2.0090  -29.7320   16.1890 C.3   312  TYR312      0.1605
    150  C         -1.2260  -30.0620   14.9110 C.2   312  TYR312      0.2264
    151  O         -1.7440  -29.9290   13.7950 O.2   312  TYR312     -0.2867
    152  CB        -2.3190  -31.0090   16.9730 C.3   312  TYR312      0.0534
    153  CG        -2.8540  -30.7930   18.3740 C.ar  312  TYR312     -0.0201
    154  CD1       -2.1670  -30.0070   19.2930 C.ar  312  TYR312     -0.0009
    155  CD2       -4.0220  -31.4220   18.7950 C.ar  312  TYR312     -0.0009
    156  CE1       -2.6290  -29.8580   20.6020 C.ar  312  TYR312      0.0417
    157  CE2       -4.4900  -31.2790   20.0960 C.ar  312  TYR312      0.0417
    158  CZ        -3.7900  -30.4980   20.9950 C.ar  312  TYR312      0.1957
    159  OH        -4.2490  -30.3700   22.2860 O.3   312  TYR312     -0.2866
@<TRIPOS>BOND
     1   151   150    2
     2   150   149    1
     3   148   149    1
     4   149   152    1
     5    22    21    1
     6    22    23    1
     7    21    20    1
     8    23    24    1
     9    20    17    1
    10   152   153    1
    11    17    18    1
    12    17    16    1
    13    11    10    2
    14    33    32    1
    15    18    19    2
    16    10    16   am
    17    10     9    1
    18   153   155   ar
    19   153   154   ar
    20   155   157   ar
    21    25    26    1
    22    32    31    1
    23     8     9    1
    24   154   156   ar
    25    26    27    1
    26    26    29    1
    27    31    30    1
    28     9    12    1
    29   144   143    2
    30    27    28    2
    31   157   158   ar
    32   143   142    1
    33    30    29    1
    34   156   158   ar
    35    12    13    1
    36    47    45    1
    37   158   159    1
    38   142   145    1
    39   142   141    1
    40   134   133    2
    41    13    15    1
    42    13    14    1
    43   145   146    1
    44    45    46    1
    45    45    42    1
    46   141   133   am
    47   141   147    1
    48   133   132    1
    49    41    42    1
    50   135   132    1
    51   135   136    1
    52    89    90    2
    53    89    88    1
    54    42    43    1
    55   146   147    1
    56   137   136   ar
    57   137   139   ar
    58   132   131    1
    59   136   138   ar
    60   131   125   am
    61    88    87    1
    62    40    38    1
    63   139   140   ar
    64     3     2    1
    65     3     4    2
    66    43    44    2
    67    43    48   am
    68     2     5    1
    69     2     1    1
    70     5     6    1
    71   138   140   ar
    72    34    35    1
    73    87    82   am
    74   125   124    1
    75   125   126    2
    76    48    49    1
    77   128   129    1
    78   128   127    1
    79   128   130    1
    80   124   127    1
    81   124   123    1
    82     6     7    1
    83    38    35    1
    84    38    39    1
    85    35    36    1
    86     1     7    1
    87    51    50    2
    88    82    83    2
    89    82    81    1
    90    49    50    1
    91    49    52    1
    92    50    56   am
    93    85    84    1
    94    53    52    1
    95    53    55    1
    96    95    96    1
    97    95    92    1
    98    96    97    1
    99    60    61    1
   100    60    57    1
   101    36    37    2
   102    81    84    1
   103    81    80    1
   104    52    54    1
   105   115   117   ar
   106   115   114   ar
   107    56    57    1
   108    62    61   ar
   109    62    64   ar
   110    61    63   ar
   111   117   118   ar
   112    57    58    1
   113    84    86    1
   114    71    70    2
   115    64    66   ar
   116    80    70   am
   117    97    91    1
   118    63    65   ar
   119   105   107   ar
   120   105   103   ar
   121   114   113    1
   122   114   116   ar
   123   112   111    2
   124    70    69    1
   125   113   110    1
   126    92    93    1
   127    92    91    1
   128   107   108   ar
   129   101   100    2
   130    66    65   ar
   131    66    67    1
   132    98    99    1
   133   118   116   ar
   134   118   120   ar
   135    93    94    2
   136    72    69    1
   137    72    73    1
   138   102   103    1
   139   102    99    1
   140   116   119   ar
   141    58    59    2
   142   103   104   ar
   143   120   122   ar
   144    69    68    1
   145   111   110    1
   146    99   100    1
   147   110   109    1
   148    75    73   ar
   149    75    77   ar
   150   108   106   ar
   151    73    74   ar
   152   119   121   ar
   153   104   106   ar
   154   122   121   ar
   155    77    78   ar
   156    74    76   ar
   157    78    76   ar
   158    78    79    1
