@<TRIPOS>MOLECULE
tmp/1rt5A00.pdb
 152 150 0 0 0
SMALL
GASTEIGER

@<TRIPOS>ATOM
      1  N          7.1530  -29.8880   26.1320 N.3    95  PRO95      -0.2116
      2  CA         6.6540  -29.9970   24.7600 C.3    95  PRO95       0.1372
      3  C          5.6830  -28.8530   24.5060 C.2    95  PRO95       0.2244
      4  O          4.7520  -28.6500   25.2780 O.2    95  PRO95      -0.2868
      5  CB         5.9020  -31.3290   24.7840 C.3    95  PRO95       0.0268
      6  CG         6.6080  -32.1110   25.8440 C.3    95  PRO95       0.0207
      7  CD         6.7870  -31.0780   26.9170 C.3    95  PRO95       0.0892
      8  N          2.5030  -31.0550   19.1270 N.3   100  LEU100     -0.1231
      9  CA         1.7450  -32.2650   19.4100 C.3   100  LEU100      0.1693
     10  C          0.9090  -32.6720   18.1970 C.2   100  LEU100      0.2591
     11  O          0.5870  -31.8430   17.3420 O.2   100  LEU100     -0.2718
     12  CB         0.7970  -32.0230   20.5880 C.3   100  LEU100      0.0284
     13  CG         1.3940  -31.6190   21.9330 C.3   100  LEU100      0.0019
     14  CD1        0.2980  -31.5530   22.9950 C.3   100  LEU100      0.0001
     15  CD2        2.4620  -32.6180   22.3370 C.3   100  LEU100      0.0001
     16  N          0.5530  -33.9500   18.1340 N.am  101  LYS101     -0.1980
     17  CA        -0.2880  -34.4790   17.0610 C.3   101  LYS101      0.1596
     18  C         -1.6430  -34.7220   17.7140 C.2   101  LYS101      0.2287
     19  O         -1.7360  -34.7550   18.9400 O.2   101  LYS101     -0.2864
     20  CB         0.2990  -35.7860   16.5200 C.3   101  LYS101      0.0298
     21  CG         1.4230  -35.5760   15.5140 C.3   101  LYS101      0.0038
     22  CD         2.5650  -36.5720   15.6750 C.3   101  LYS101      0.0206
     23  CE         3.7960  -35.9140   16.3090 C.3   101  LYS101      0.1093
     24  NZ         3.7780  -35.8690   17.8060 N.3   101  LYS101     -0.1314
     25  N         -4.8860  -36.7620   19.0000 N.3   103  LYS103     -0.1245
     26  CA        -5.1270  -38.1200   19.4760 C.3   103  LYS103      0.1561
     27  C         -6.6250  -38.2710   19.7000 C.2   103  LYS103      0.2260
     28  O         -7.2970  -37.3000   20.0580 O.2   103  LYS103     -0.2867
     29  CB        -4.3680  -38.3910   20.7830 C.3   103  LYS103      0.0271
     30  CG        -2.8570  -38.3880   20.6360 C.3   103  LYS103      0.0035
     31  CD        -2.4430  -39.3330   19.5270 C.3   103  LYS103      0.0206
     32  CE        -1.0120  -39.1100   19.0890 C.3   103  LYS103      0.1093
     33  NZ        -0.7810  -39.7380   17.7570 N.3   103  LYS103     -0.1314
     34  N         -7.0820  -39.0990   25.2980 N.3   106  VAL106     -0.1245
     35  CA        -5.9170  -38.8970   26.1530 C.3   106  VAL106      0.1561
     36  C         -6.3450  -39.0580   27.6090 C.2   106  VAL106      0.2260
     37  O         -7.3390  -38.4690   28.0410 O.2   106  VAL106     -0.2867
     38  CB        -5.3200  -37.4830   25.9590 C.3   106  VAL106      0.0252
     39  CG1       -4.0170  -37.3590   26.7160 C.3   106  VAL106      0.0019
     40  CG2       -5.1150  -37.1810   24.4760 C.3   106  VAL106      0.0019
     41  N          0.9300  -43.5720   23.0280 N.3   174  VAL174     -0.1231
     42  CA         1.8590  -42.5090   23.3960 C.3   174  VAL174      0.1692
     43  C          1.7970  -42.1520   24.8780 C.2   174  VAL174      0.2592
     44  O          0.7720  -41.6960   25.3850 O.2   174  VAL174     -0.2718
     45  CB         1.6010  -41.2320   22.5720 C.3   174  VAL174      0.0266
     46  CG1        2.5570  -40.1380   22.9940 C.3   174  VAL174      0.0020
     47  CG2        1.7590  -41.5250   21.0840 C.3   174  VAL174      0.0020
     48  N          2.9060  -42.3700   25.5660 N.am  175  ILE175     -0.1966
     49  CA         2.9980  -42.0560   26.9810 C.3   175  ILE175      0.1727
     50  C          3.9600  -40.8780   27.1220 C.2   175  ILE175      0.2616
     51  O          4.9480  -40.7780   26.3870 O.2   175  ILE175     -0.2715
     52  CB         3.5930  -43.2390   27.7840 C.3   175  ILE175      0.0290
     53  CG1        2.8890  -44.5430   27.4230 C.3   175  ILE175      0.0022
     54  CG2        3.4740  -42.9860   29.2860 C.3   175  ILE175      0.0023
     55  CD1        3.6060  -45.7650   27.9640 C.3   175  ILE175      0.0001
     56  N          3.6560  -39.9790   28.0470 N.am  176  TYR176     -0.1974
     57  CA         4.5080  -38.8360   28.3150 C.3   176  TYR176      0.1639
     58  C          4.4770  -38.5970   29.8100 C.2   176  TYR176      0.2290
     59  O          3.4210  -38.3280   30.3880 O.2   176  TYR176     -0.2864
     60  CB         4.0330  -37.5810   27.5860 C.3   176  TYR176      0.0560
     61  CG         4.7240  -36.3380   28.1000 C.ar  176  TYR176     -0.0198
     62  CD1        6.0450  -36.0580   27.7520 C.ar  176  TYR176     -0.0009
     63  CD2        4.0760  -35.4700   28.9820 C.ar  176  TYR176     -0.0009
     64  CE1        6.7040  -34.9460   28.2740 C.ar  176  TYR176      0.0417
     65  CE2        4.7250  -34.3590   29.5060 C.ar  176  TYR176      0.0417
     66  CZ         6.0380  -34.1050   29.1490 C.ar  176  TYR176      0.1957
     67  OH         6.6830  -33.0100   29.6700 O.3   176  TYR176     -0.2866
     68  N          0.7830  -39.0690   31.0950 N.3   183  TYR183     -0.1241
     69  CA        -0.1840  -38.7630   30.0360 C.3   183  TYR183      0.1605
     70  C         -0.1260  -39.8300   28.9620 C.2   183  TYR183      0.2264
     71  O          0.9510  -40.1490   28.4570 O.2   183  TYR183     -0.2867
     72  CB         0.1040  -37.3990   29.4050 C.3   183  TYR183      0.0534
     73  CG        -0.0280  -36.2460   30.3710 C.ar  183  TYR183     -0.0201
     74  CD1        0.9260  -36.0370   31.3680 C.ar  183  TYR183     -0.0009
     75  CD2       -1.1190  -35.3780   30.3070 C.ar  183  TYR183     -0.0009
     76  CE1        0.7960  -34.9950   32.2800 C.ar  183  TYR183      0.0417
     77  CE2       -1.2610  -34.3310   31.2140 C.ar  183  TYR183      0.0417
     78  CZ        -0.2990  -34.1460   32.2000 C.ar  183  TYR183      0.1957
     79  OH        -0.4320  -33.1240   33.1160 O.3   183  TYR183     -0.2866
     80  N         -2.0280  -41.1110   25.2820 N.3   185  GLY185     -0.1225
     81  CA        -2.9730  -40.8410   24.2120 C.3   185  GLY185      0.1811
     82  C         -2.8680  -41.8740   23.1020 C.2   185  GLY185      0.2280
     83  O         -1.9130  -42.6570   23.0640 O.2   185  GLY185     -0.2866
     84  N         -9.5950  -34.9410   29.7230 N.3   220  PRO220     -0.2116
     85  CA        -9.4370  -33.6480   29.0300 C.3   220  PRO220      0.1372
     86  C        -10.6620  -32.7660   29.2840 C.2   220  PRO220      0.2244
     87  O        -11.7180  -33.2780   29.6590 O.2   220  PRO220     -0.2868
     88  CB        -9.3960  -34.0560   27.5560 C.3   220  PRO220      0.0268
     89  CG        -8.8570  -35.4450   27.5920 C.3   220  PRO220      0.0207
     90  CD        -9.6000  -36.0440   28.7480 C.3   220  PRO220      0.0892
     91  N         -7.1230  -30.3130   29.1780 N.3   222  PHE222     -0.1241
     92  CA        -6.0100  -30.1700   30.1000 C.3   222  PHE222      0.1605
     93  C         -5.4170  -28.7700   30.0350 C.2   222  PHE222      0.2264
     94  O         -5.5550  -28.0720   29.0280 O.2   222  PHE222     -0.2867
     95  CB        -4.9310  -31.2170   29.7950 C.3   222  PHE222      0.0534
     96  CG        -5.3710  -32.6370   30.0350 C.ar  222  PHE222     -0.0203
     97  CD1       -5.6380  -33.0880   31.3250 C.ar  222  PHE222     -0.0042
     98  CD2       -5.5050  -33.5270   28.9730 C.ar  222  PHE222     -0.0042
     99  CE1       -6.0320  -34.4080   31.5560 C.ar  222  PHE222     -0.0003
    100  CE2       -5.8970  -34.8480   29.1940 C.ar  222  PHE222     -0.0003
    101  CZ        -6.1610  -35.2890   30.4890 C.ar  222  PHE222     -0.0000
    102  N         -2.1150  -26.7110   29.9340 N.3   224  TRP224     -0.1241
    103  CA        -0.6930  -26.8460   29.6890 C.3   224  TRP224      0.1605
    104  C         -0.0500  -25.5080   29.4290 C.2   224  TRP224      0.2264
    105  O         -0.0740  -24.9990   28.3060 O.2   224  TRP224     -0.2867
    106  CB        -0.4230  -27.7780   28.5170 C.3   224  TRP224      0.0550
    107  CG         0.9880  -28.2430   28.4660 C.ar  224  TRP224      0.0003
    108  CD1        1.9000  -27.9940   27.4800 C.ar  224  TRP224      0.0946
    109  CD2        1.6420  -29.0920   29.4150 C.ar  224  TRP224      0.0152
    110  NE1        3.0780  -28.6510   27.7530 N.ar  224  TRP224     -0.2442
    111  CE2        2.9480  -29.3310   28.9350 C.ar  224  TRP224      0.0810
    112  CE3        1.2480  -29.6820   30.6250 C.ar  224  TRP224      0.0012
    113  CZ2        3.8640  -30.1390   29.6210 C.ar  224  TRP224      0.0191
    114  CZ3        2.1620  -30.4870   31.3070 C.ar  224  TRP224      0.0001
    115  CH2        3.4550  -30.7080   30.8010 C.ar  224  TRP224      0.0015
    116  N         -5.6280  -27.7830   26.4330 N.3   229  LEU229     -0.1231
    117  CA        -5.5170  -28.8870   25.5020 C.3   229  LEU229      0.1693
    118  C         -6.7540  -29.7770   25.3200 C.2   229  LEU229      0.2592
    119  O         -7.3980  -30.2000   26.2880 O.2   229  LEU229     -0.2718
    120  CB        -4.3040  -29.7290   25.8950 C.3   229  LEU229      0.0284
    121  CG        -2.9490  -29.3780   25.2730 C.3   229  LEU229      0.0019
    122  CD1       -2.7390  -27.8830   25.1500 C.3   229  LEU229      0.0001
    123  CD2       -1.8450  -30.0160   26.0920 C.3   229  LEU229      0.0001
    124  N         -7.0900  -30.0270   24.0600 N.am  230  HIS230     -0.1962
    125  CA        -8.2050  -30.8930   23.6960 C.3   230  HIS230      0.1772
    126  C         -7.6090  -31.9170   22.7450 C.2   230  HIS230      0.2462
    127  O         -6.6070  -31.6440   22.0830 O.2   230  HIS230     -0.2730
    128  CB        -9.3030  -30.1260   22.9540 C.3   230  HIS230      0.0785
    129  CG        -9.9870  -29.0900   23.7850 C.ar  230  HIS230      0.0821
    130  ND1      -10.6190  -27.9970   23.2350 N.ar  230  HIS230     -0.2267
    131  CD2      -10.1510  -28.9870   25.1220 C.ar  230  HIS230      0.1154
    132  CE1      -11.1450  -27.2660   24.2000 C.ar  230  HIS230      0.1986
    133  NE2      -10.8760  -27.8450   25.3550 N.ar  230  HIS230     -0.2212
    134  N         -8.2150  -33.1080   22.6600 N.am  231  PRO231     -0.2727
    135  CA        -7.7090  -34.1570   21.7670 C.3   231  PRO231      0.1402
    136  C         -7.7460  -33.7020   20.3140 C.2   231  PRO231      0.2269
    137  O         -6.9450  -34.1370   19.4870 O.2   231  PRO231     -0.2865
    138  CB        -8.6960  -35.2980   22.0060 C.3   231  PRO231      0.0296
    139  CG        -9.1050  -35.0970   23.4350 C.3   231  PRO231      0.0237
    140  CD        -9.3320  -33.6120   23.4760 C.3   231  PRO231      0.0939
    141  N         -3.2810  -28.9300   15.8060 N.3   312  TYR312     -0.1241
    142  CA        -2.0700  -29.6970   16.0890 C.3   312  TYR312      0.1605
    143  C         -1.2640  -29.9660   14.8140 C.2   312  TYR312      0.2264
    144  O         -1.7000  -29.6360   13.7050 O.2   312  TYR312     -0.2867
    145  CB        -2.4090  -31.0020   16.8210 C.3   312  TYR312      0.0534
    146  CG        -2.9060  -30.7980   18.2390 C.ar  312  TYR312     -0.0201
    147  CD1       -2.3490  -29.8220   19.0600 C.ar  312  TYR312     -0.0009
    148  CD2       -3.9350  -31.5820   18.7590 C.ar  312  TYR312     -0.0009
    149  CE1       -2.8050  -29.6310   20.3650 C.ar  312  TYR312      0.0417
    150  CE2       -4.3980  -31.3960   20.0610 C.ar  312  TYR312      0.0417
    151  CZ        -3.8290  -30.4210   20.8570 C.ar  312  TYR312      0.1957
    152  OH        -4.2780  -30.2310   22.1410 O.3   312  TYR312     -0.2866
@<TRIPOS>BOND
     1   144   143    2
     2   143   142    1
     3    21    22    1
     4    21    20    1
     5    22    23    1
     6   141   142    1
     7   142   145    1
     8    23    24    1
     9    20    17    1
    10   145   146    1
    11    17    18    1
    12    17    16    1
    13    11    10    2
    14    18    19    2
    15    33    32    1
    16    16    10   am
    17    10     9    1
    18   146   148   ar
    19   146   147   ar
    20   148   150   ar
    21    25    26    1
    22   147   149   ar
    23    32    31    1
    24     8     9    1
    25     9    12    1
    26    26    27    1
    27    26    29    1
    28   137   136    2
    29    31    30    1
    30    27    28    2
    31   150   151   ar
    32   136   135    1
    33   149   151   ar
    34    12    13    1
    35    30    29    1
    36   151   152    1
    37    47    45    1
    38   135   138    1
    39   135   134    1
    40    13    15    1
    41    13    14    1
    42   138   139    1
    43   127   126    2
    44    45    46    1
    45    45    42    1
    46   134   126   am
    47   134   140    1
    48   126   125    1
    49   128   125    1
    50   128   129    1
    51    41    42    1
    52    83    82    2
    53    82    81    1
    54   130   129   ar
    55   130   132   ar
    56    42    43    1
    57   139   140    1
    58   125   124    1
    59   129   131   ar
    60   124   118   am
    61   132   133   ar
    62    81    80    1
    63    40    38    1
    64     3     2    1
    65     3     4    2
    66     2     5    1
    67     2     1    1
    68     5     6    1
    69    43    44    2
    70    43    48   am
    71   131   133   ar
    72   122   121    1
    73   121   120    1
    74   121   123    1
    75    34    35    1
    76   118   117    1
    77   118   119    2
    78   117   120    1
    79   117   116    1
    80    48    49    1
    81     6     7    1
    82    38    35    1
    83    38    39    1
    84     1     7    1
    85    35    36    1
    86    51    50    2
    87    49    50    1
    88    49    52    1
    89    50    56   am
    90    53    52    1
    91    53    55    1
    92   108   110   ar
    93   108   107   ar
    94    88    89    1
    95    88    85    1
    96    60    61    1
    97    60    57    1
    98    89    90    1
    99    36    37    2
   100    62    61   ar
   101    62    64   ar
   102   110   111   ar
   103    52    54    1
   104    56    57    1
   105    61    63   ar
   106    64    66   ar
   107   105   104    2
   108    57    58    1
   109    71    70    2
   110   107   106    1
   111   107   109   ar
   112   106   103    1
   113    90    84    1
   114   111   109   ar
   115   111   113   ar
   116    70    69    1
   117    98   100   ar
   118    98    96   ar
   119    63    65   ar
   120    94    93    2
   121    85    86    1
   122    85    84    1
   123    66    65   ar
   124    66    67    1
   125    91    92    1
   126   100   101   ar
   127    86    87    2
   128    72    69    1
   129    72    73    1
   130   109   112   ar
   131   104   103    1
   132   113   115   ar
   133   103   102    1
   134    95    96    1
   135    95    92    1
   136    58    59    2
   137    93    92    1
   138    96    97   ar
   139    69    68    1
   140    75    73   ar
   141    75    77   ar
   142    73    74   ar
   143   101    99   ar
   144   112   114   ar
   145   115   114   ar
   146    77    78   ar
   147    97    99   ar
   148    74    76   ar
   149    78    76   ar
   150    78    79    1
