@<TRIPOS>MOLECULE
tmp/1rt6A00.pdb
 145 143 0 0 0
SMALL
GASTEIGER

@<TRIPOS>ATOM
      1  N          6.8670  -29.8440   25.6060 N.3    95  PRO95      -0.2116
      2  CA         6.2660  -29.7310   24.2690 C.3    95  PRO95       0.1372
      3  C          5.3800  -28.4950   24.1070 C.2    95  PRO95       0.2244
      4  O          4.6680  -28.1180   25.0320 O.2    95  PRO95      -0.2868
      5  CB         5.4250  -31.0090   24.1590 C.3    95  PRO95       0.0268
      6  CG         6.0700  -31.9660   25.1430 C.3    95  PRO95       0.0207
      7  CD         6.4180  -31.0710   26.2870 C.3    95  PRO95       0.0892
      8  N          2.3760  -30.8580   18.8840 N.3   100  LEU100     -0.1231
      9  CA         1.7000  -32.1230   19.1750 C.3   100  LEU100      0.1693
     10  C          0.7860  -32.4760   17.9900 C.2   100  LEU100      0.2591
     11  O          0.3940  -31.5990   17.2120 O.2   100  LEU100     -0.2718
     12  CB         0.8120  -31.9760   20.4110 C.3   100  LEU100      0.0284
     13  CG         1.3840  -31.4750   21.7260 C.3   100  LEU100      0.0019
     14  CD1        0.2170  -31.1440   22.6470 C.3   100  LEU100      0.0001
     15  CD2        2.3010  -32.5140   22.3540 C.3   100  LEU100      0.0001
     16  N          0.3760  -33.7390   17.9200 N.am  101  LYS101     -0.1980
     17  CA        -0.4880  -34.2220   16.8510 C.3   101  LYS101      0.1596
     18  C         -1.8400  -34.4940   17.4700 C.2   101  LYS101      0.2287
     19  O         -1.9280  -34.6770   18.6900 O.2   101  LYS101     -0.2864
     20  CB         0.0510  -35.5320   16.2650 C.3   101  LYS101      0.0298
     21  CG         1.4570  -35.4700   15.6840 C.3   101  LYS101      0.0038
     22  CD         2.5050  -35.5920   16.7800 C.3   101  LYS101      0.0206
     23  CE         3.9180  -35.4010   16.2450 C.3   101  LYS101      0.1093
     24  NZ         4.8020  -34.8520   17.3120 N.3   101  LYS101     -0.1314
     25  N         -5.0700  -36.6020   18.5490 N.3   103  LYS103     -0.1245
     26  CA        -5.2850  -37.9790   18.9540 C.3   103  LYS103      0.1561
     27  C         -6.7710  -38.2620   19.0520 C.2   103  LYS103      0.2260
     28  O         -7.5510  -37.3980   19.4580 O.2   103  LYS103     -0.2867
     29  CB        -4.6160  -38.2550   20.3090 C.3   103  LYS103      0.0271
     30  CG        -3.0990  -38.1350   20.2980 C.3   103  LYS103      0.0035
     31  CD        -2.4930  -39.0250   19.2310 C.3   103  LYS103      0.0206
     32  CE        -1.1960  -38.4470   18.6930 C.3   103  LYS103      0.1093
     33  NZ        -0.8750  -38.9940   17.3380 N.3   103  LYS103     -0.1314
     34  N         -7.2280  -39.0150   24.4100 N.3   106  VAL106     -0.1245
     35  CA        -6.0560  -38.6610   25.2070 C.3   106  VAL106      0.1561
     36  C         -6.4320  -38.7850   26.6750 C.2   106  VAL106      0.2260
     37  O         -7.4330  -38.2190   27.1030 O.2   106  VAL106     -0.2867
     38  CB        -5.6050  -37.2100   24.9540 C.3   106  VAL106      0.0252
     39  CG1       -4.3970  -36.8960   25.8150 C.3   106  VAL106      0.0019
     40  CG2       -5.2820  -36.9850   23.4820 C.3   106  VAL106      0.0019
     41  N          1.0560  -43.3000   22.4230 N.3   179  VAL179     -0.1231
     42  CA         2.0460  -42.2630   22.6950 C.3   179  VAL179      0.1692
     43  C          1.9540  -41.6720   24.1050 C.2   179  VAL179      0.2592
     44  O          1.0480  -40.8990   24.4010 O.2   179  VAL179     -0.2718
     45  CB         1.9250  -41.1130   21.6810 C.3   179  VAL179      0.0266
     46  CG1        3.0380  -40.1270   21.9130 C.3   179  VAL179      0.0020
     47  CG2        1.9700  -41.6410   20.2510 C.3   179  VAL179      0.0020
     48  N          2.9040  -42.0220   24.9640 N.am  180  ILE180     -0.1966
     49  CA         2.9240  -41.5090   26.3350 C.3   180  ILE180      0.1727
     50  C          3.8680  -40.3060   26.4900 C.2   180  ILE180      0.2616
     51  O          4.8660  -40.1730   25.7680 O.2   180  ILE180     -0.2715
     52  CB         3.3680  -42.6020   27.3390 C.3   180  ILE180      0.0290
     53  CG1        2.5390  -43.8700   27.1250 C.3   180  ILE180      0.0022
     54  CG2        3.2160  -42.1030   28.7900 C.3   180  ILE180      0.0023
     55  CD1        3.0990  -45.0950   27.8110 C.3   180  ILE180      0.0001
     56  N          3.5200  -39.4170   27.4130 N.am  181  TYR181     -0.1974
     57  CA         4.3280  -38.2450   27.7130 C.3   181  TYR181      0.1639
     58  C          4.3810  -38.1170   29.2200 C.2   181  TYR181      0.2290
     59  O          3.3480  -38.0400   29.8840 O.2   181  TYR181     -0.2864
     60  CB         3.7160  -36.9800   27.1320 C.3   181  TYR181      0.0560
     61  CG         4.3610  -35.7210   27.6760 C.ar  181  TYR181     -0.0198
     62  CD1        5.7340  -35.4880   27.5160 C.ar  181  TYR181     -0.0009
     63  CD2        3.6060  -34.7710   28.3690 C.ar  181  TYR181     -0.0009
     64  CE1        6.3370  -34.3460   28.0350 C.ar  181  TYR181      0.0417
     65  CE2        4.1950  -33.6260   28.8890 C.ar  181  TYR181      0.0417
     66  CZ         5.5590  -33.4180   28.7200 C.ar  181  TYR181      0.1957
     67  OH         6.1320  -32.2800   29.2390 O.3   181  TYR181     -0.2866
     68  N          0.7770  -38.7170   30.1140 N.3   188  TYR188     -0.1241
     69  CA        -0.2790  -38.3280   29.1910 C.3   188  TYR188      0.1605
     70  C         -0.2550  -39.2880   28.0060 C.2   188  TYR188      0.2264
     71  O          0.6390  -39.2250   27.1550 O.2   188  TYR188     -0.2867
     72  CB        -0.0810  -36.8910   28.7170 C.3   188  TYR188      0.0534
     73  CG        -0.2350  -35.8450   29.8030 C.ar  188  TYR188     -0.0201
     74  CD1        0.7990  -35.5900   30.7050 C.ar  188  TYR188     -0.0009
     75  CD2       -1.3980  -35.0780   29.9000 C.ar  188  TYR188     -0.0009
     76  CE1        0.6810  -34.5930   31.6710 C.ar  188  TYR188      0.0417
     77  CE2       -1.5220  -34.0790   30.8660 C.ar  188  TYR188      0.0417
     78  CZ        -0.4790  -33.8420   31.7460 C.ar  188  TYR188      0.1957
     79  OH        -0.5880  -32.8490   32.6910 O.3   188  TYR188     -0.2866
     80  N         -1.9770  -40.6610   24.6630 N.3   190  GLY190     -0.1225
     81  CA        -2.9200  -40.3390   23.6080 C.3   190  GLY190      0.1811
     82  C         -2.8170  -41.3980   22.5380 C.2   190  GLY190      0.2280
     83  O         -1.8530  -42.1630   22.5410 O.2   190  GLY190     -0.2866
     84  N         -7.2490  -30.0200   28.6190 N.3   227  PHE227     -0.1241
     85  CA        -6.1540  -29.9480   29.5700 C.3   227  PHE227      0.1605
     86  C         -5.4710  -28.5800   29.5680 C.2   227  PHE227      0.2264
     87  O         -5.2390  -27.9880   28.5000 O.2   227  PHE227     -0.2867
     88  CB        -5.1440  -31.0680   29.2950 C.3   227  PHE227      0.0534
     89  CG        -5.6980  -32.4460   29.5110 C.ar  227  PHE227     -0.0203
     90  CD1       -6.2070  -32.8180   30.7520 C.ar  227  PHE227     -0.0042
     91  CD2       -5.7400  -33.3630   28.4680 C.ar  227  PHE227     -0.0042
     92  CE1       -6.7560  -34.0820   30.9480 C.ar  227  PHE227     -0.0003
     93  CE2       -6.2860  -34.6300   28.6530 C.ar  227  PHE227     -0.0003
     94  CZ        -6.7950  -34.9910   29.8950 C.ar  227  PHE227     -0.0000
     95  N         -2.5210  -26.6270   29.6440 N.3   229  TRP229     -0.1241
     96  CA        -1.1030  -26.7320   29.4100 C.3   229  TRP229      0.1605
     97  C         -0.5760  -25.3330   29.2190 C.2   229  TRP229      0.2264
     98  O         -0.4500  -24.8500   28.0890 O.2   229  TRP229     -0.2867
     99  CB        -0.8540  -27.5620   28.1690 C.3   229  TRP229      0.0550
    100  CG         0.5550  -27.9440   27.9320 C.ar  229  TRP229      0.0003
    101  CD1        1.2830  -27.7100   26.8000 C.ar  229  TRP229      0.0946
    102  CD2        1.3950  -28.7140   28.8020 C.ar  229  TRP229      0.0152
    103  NE1        2.5200  -28.2970   26.9070 N.ar  229  TRP229     -0.2442
    104  CE2        2.6190  -28.9190   28.1230 C.ar  229  TRP229      0.0810
    105  CE3        1.2290  -29.2570   30.0880 C.ar  229  TRP229      0.0012
    106  CZ2        3.6760  -29.6440   28.6820 C.ar  229  TRP229      0.0191
    107  CZ3        2.2820  -29.9800   30.6460 C.ar  229  TRP229      0.0001
    108  CH2        3.4890  -30.1660   29.9410 C.ar  229  TRP229      0.0015
    109  N         -6.0920  -27.6280   25.7450 N.3   234  LEU234     -0.1231
    110  CA        -5.9790  -28.5750   24.6540 C.3   234  LEU234      0.1693
    111  C         -7.1240  -29.5510   24.6620 C.2   234  LEU234      0.2592
    112  O         -7.6410  -29.9480   25.7110 O.2   234  LEU234     -0.2718
    113  CB        -4.6770  -29.3700   24.7220 C.3   234  LEU234      0.0284
    114  CG        -3.3260  -28.6690   24.8060 C.3   234  LEU234      0.0019
    115  CD1       -3.2870  -27.4400   23.9100 C.3   234  LEU234      0.0001
    116  CD2       -3.1210  -28.2840   26.2290 C.3   234  LEU234      0.0001
    117  N         -7.5470  -29.9060   23.4680 N.am  235  HIS235     -0.1962
    118  CA        -8.6060  -30.8730   23.2960 C.3   235  HIS235      0.1772
    119  C         -7.9460  -31.7740   22.2730 C.2   235  HIS235      0.2462
    120  O         -7.2690  -31.2850   21.3670 O.2   235  HIS235     -0.2730
    121  CB        -9.8540  -30.2170   22.6990 C.3   235  HIS235      0.0785
    122  CG       -10.3130  -28.9970   23.4370 C.ar  235  HIS235      0.0821
    123  ND1      -11.2040  -29.0540   24.4860 N.ar  235  HIS235     -0.2267
    124  CD2      -10.0260  -27.6870   23.2550 C.ar  235  HIS235      0.1154
    125  CE1      -11.4520  -27.8290   24.9150 C.ar  235  HIS235      0.1986
    126  NE2      -10.7490  -26.9800   24.1870 N.ar  235  HIS235     -0.2212
    127  N         -8.0980  -33.0960   22.4110 N.am  236  PRO236     -0.2727
    128  CA        -7.4840  -34.0300   21.4580 C.3   236  PRO236      0.1402
    129  C         -7.7020  -33.7000   19.9760 C.2   236  PRO236      0.2269
    130  O         -6.9650  -34.1760   19.1230 O.2   236  PRO236     -0.2865
    131  CB        -8.1000  -35.3780   21.8490 C.3   236  PRO236      0.0296
    132  CG        -9.3380  -35.0070   22.6300 C.3   236  PRO236      0.0237
    133  CD        -8.8900  -33.8190   23.4150 C.3   236  PRO236      0.0939
    134  N         -3.7000  -28.7150   15.4660 N.3   317  TYR317     -0.1241
    135  CA        -2.4880  -29.4670   15.8300 C.3   317  TYR317      0.1605
    136  C         -1.5990  -29.8290   14.6400 C.2   317  TYR317      0.2264
    137  O         -1.9900  -29.6410   13.4790 O.2   317  TYR317     -0.2867
    138  CB        -2.8590  -30.7440   16.5600 C.3   317  TYR317      0.0534
    139  CG        -3.3310  -30.5380   17.9690 C.ar  317  TYR317     -0.0201
    140  CD1       -2.4920  -29.9990   18.9350 C.ar  317  TYR317     -0.0009
    141  CD2       -4.5940  -30.9620   18.3580 C.ar  317  TYR317     -0.0009
    142  CE1       -2.9040  -29.8930   20.2720 C.ar  317  TYR317      0.0417
    143  CE2       -5.0100  -30.8620   19.6750 C.ar  317  TYR317      0.0417
    144  CZ        -4.1620  -30.3330   20.6270 C.ar  317  TYR317      0.1957
    145  OH        -4.5900  -30.2630   21.9250 O.3   317  TYR317     -0.2866
@<TRIPOS>BOND
     1   137   136    2
     2   136   135    1
     3   134   135    1
     4    21    20    1
     5    21    22    1
     6   135   138    1
     7    23    22    1
     8    23    24    1
     9    20    17    1
    10   138   139    1
    11    17    18    1
    12    17    16    1
    13    11    10    2
    14    33    32    1
    15    18    19    2
    16    16    10   am
    17   139   141   ar
    18   139   140   ar
    19    10     9    1
    20   141   143   ar
    21    25    26    1
    22    32    31    1
    23     8     9    1
    24   140   142   ar
    25    26    27    1
    26    26    29    1
    27    27    28    2
    28   130   129    2
    29     9    12    1
    30    31    30    1
    31   143   144   ar
    32   129   128    1
    33    47    45    1
    34   142   144   ar
    35    30    29    1
    36    12    13    1
    37   144   145    1
    38   120   119    2
    39   128   131    1
    40   128   127    1
    41    45    46    1
    42    45    42    1
    43    13    15    1
    44    13    14    1
    45   131   132    1
    46   119   127   am
    47   119   118    1
    48   127   133    1
    49    41    42    1
    50    82    83    2
    51    82    81    1
    52   132   133    1
    53    42    43    1
    54   121   118    1
    55   121   122    1
    56   124   122   ar
    57   124   126   ar
    58   118   117    1
    59   122   123   ar
    60   117   111   am
    61    40    38    1
    62    81    80    1
    63   115   114    1
    64    43    44    2
    65    43    48   am
    66     3     2    1
    67     3     4    2
    68     5     2    1
    69     5     6    1
    70   126   125   ar
    71     2     1    1
    72    34    35    1
    73   123   125   ar
    74   110   111    1
    75   110   113    1
    76   110   109    1
    77   111   112    2
    78   113   114    1
    79   114   116    1
    80    38    35    1
    81    38    39    1
    82    48    49    1
    83     6     7    1
    84    35    36    1
    85     1     7    1
    86    51    50    2
    87    49    50    1
    88    49    52    1
    89    50    56   am
    90    36    37    2
    91   101   103   ar
    92   101   100   ar
    93   103   104   ar
    94    53    52    1
    95    53    55    1
    96    60    61    1
    97    60    57    1
    98    71    70    2
    99    52    54    1
   100    56    57    1
   101    62    61   ar
   102    62    64   ar
   103    61    63   ar
   104    57    58    1
   105   100    99    1
   106   100   102   ar
   107    70    69    1
   108    64    66   ar
   109    98    97    2
   110   104   106   ar
   111   104   102   ar
   112    99    96    1
   113    63    65   ar
   114    91    93   ar
   115    91    89   ar
   116    87    86    2
   117    84    85    1
   118    93    94   ar
   119   106   108   ar
   120    72    69    1
   121    72    73    1
   122    66    65   ar
   123    66    67    1
   124   102   105   ar
   125    69    68    1
   126    97    96    1
   127    58    59    2
   128    88    89    1
   129    88    85    1
   130    96    95    1
   131    89    90   ar
   132    86    85    1
   133    73    75   ar
   134    73    74   ar
   135    94    92   ar
   136    75    77   ar
   137   108   107   ar
   138   105   107   ar
   139    74    76   ar
   140    90    92   ar
   141    77    78   ar
   142    76    78   ar
   143    78    79    1
