@<TRIPOS>MOLECULE
tmp/1rt7A00.pdb
 134 130 0 0 0
SMALL
GASTEIGER

@<TRIPOS>ATOM
      1  N          6.9680  -30.0310   25.8960 N.3    92  PRO92      -0.2116
      2  CA         6.3800  -29.9660   24.5560 C.3    92  PRO92       0.1372
      3  C          5.5690  -28.7000   24.4070 C.2    92  PRO92       0.2244
      4  O          5.0980  -28.1320   25.3930 O.2    92  PRO92      -0.2868
      5  CB         5.4680  -31.1910   24.5210 C.3    92  PRO92       0.0268
      6  CG         6.0560  -32.1130   25.5730 C.3    92  PRO92       0.0207
      7  CD         6.3960  -31.1490   26.6630 C.3    92  PRO92       0.0892
      8  N          2.4680  -30.7950   19.3210 N.3    97  LEU97      -0.1231
      9  CA         1.7830  -32.0560   19.6070 C.3    97  LEU97       0.1693
     10  C          0.9030  -32.4630   18.4060 C.2    97  LEU97       0.2591
     11  O          0.5030  -31.6190   17.5930 O.2    97  LEU97      -0.2718
     12  CB         0.8680  -31.9160   20.8220 C.3    97  LEU97       0.0284
     13  CG         1.3060  -31.1770   22.0820 C.3    97  LEU97       0.0019
     14  CD1        0.1630  -31.2520   23.0710 C.3    97  LEU97       0.0001
     15  CD2        2.5830  -31.7590   22.6870 C.3    97  LEU97       0.0001
     16  N          0.5770  -33.7500   18.3140 N.am   98  LYS98      -0.1980
     17  CA        -0.2660  -34.2420   17.2360 C.3    98  LYS98       0.1596
     18  C         -1.6750  -34.4910   17.7570 C.2    98  LYS98       0.2287
     19  O         -1.8590  -34.7320   18.9560 O.2    98  LYS98      -0.2864
     20  CB         0.3040  -35.5320   16.6550 C.3    98  LYS98       0.0298
     21  CG         1.5910  -35.3660   15.8740 C.3    98  LYS98       0.0038
     22  CD         2.7770  -35.7100   16.7360 C.3    98  LYS98       0.0206
     23  CE         4.0830  -35.3910   16.0360 C.3    98  LYS98       0.1093
     24  NZ         4.9960  -34.6950   16.9880 N.3    98  LYS98      -0.1314
     25  N         -5.0590  -36.4480   18.5410 N.3   100  LYS100     -0.1245
     26  CA        -5.3690  -37.8280   18.9030 C.3   100  LYS100      0.1561
     27  C         -6.8440  -38.1150   19.0770 C.2   100  LYS100      0.2260
     28  O         -7.6120  -37.2120   19.4050 O.2   100  LYS100     -0.2867
     29  CB        -4.6540  -38.1680   20.2040 C.3   100  LYS100      0.0271
     30  CG        -3.1770  -37.9490   20.1140 C.3   100  LYS100      0.0035
     31  CD        -2.5120  -38.9670   19.2410 C.3   100  LYS100      0.0206
     32  CE        -1.2540  -38.3930   18.6530 C.3   100  LYS100      0.1093
     33  NZ        -1.1830  -38.7310   17.2200 N.3   100  LYS100     -0.1314
     34  N         -7.0480  -39.0430   24.6770 N.3   103  VAL103     -0.1245
     35  CA        -5.8570  -38.7360   25.4360 C.3   103  VAL103      0.1561
     36  C         -6.3190  -38.9050   26.8540 C.2   103  VAL103      0.2260
     37  O         -7.4220  -38.4830   27.2000 O.2   103  VAL103     -0.2867
     38  CB        -5.4120  -37.2850   25.2720 C.3   103  VAL103      0.0252
     39  CG1       -4.2760  -36.9970   26.2420 C.3   103  VAL103      0.0019
     40  CG2       -4.9970  -37.0070   23.8330 C.3   103  VAL103      0.0019
     41  N          1.2380  -43.3320   22.3550 N.3   176  VAL176     -0.1245
     42  CA         2.1770  -42.2970   22.8030 C.3   176  VAL176      0.1561
     43  C          1.9440  -41.9640   24.2800 C.2   176  VAL176      0.2260
     44  O          0.8100  -41.6930   24.6740 O.2   176  VAL176     -0.2867
     45  CB         2.0040  -41.0180   21.9690 C.3   176  VAL176      0.0252
     46  CG1        3.1060  -40.0070   22.3120 C.3   176  VAL176      0.0019
     47  CG2        1.9810  -41.3620   20.4830 C.3   176  VAL176      0.0019
     48  N          3.1950  -39.4390   27.4740 N.3   178  TYR178     -0.1241
     49  CA         3.9850  -38.3170   27.9550 C.3   178  TYR178      0.1605
     50  C          4.1630  -38.2790   29.4840 C.2   178  TYR178      0.2264
     51  O          3.2150  -38.4490   30.2720 O.2   178  TYR178     -0.2867
     52  CB         3.4380  -36.9910   27.4460 C.3   178  TYR178      0.0534
     53  CG         4.1880  -35.8050   28.0180 C.ar  178  TYR178     -0.0201
     54  CD1        5.5130  -35.5350   27.6490 C.ar  178  TYR178     -0.0009
     55  CD2        3.5770  -34.9520   28.9220 C.ar  178  TYR178     -0.0009
     56  CE1        6.1990  -34.4340   28.1710 C.ar  178  TYR178      0.0417
     57  CE2        4.2440  -33.8620   29.4430 C.ar  178  TYR178      0.0417
     58  CZ         5.5490  -33.6000   29.0700 C.ar  178  TYR178      0.1957
     59  OH         6.1660  -32.4830   29.5930 O.3   178  TYR178     -0.2866
     60  N          0.6020  -38.8980   30.2880 N.3   185  TYR185     -0.1227
     61  CA        -0.3680  -38.4750   29.2820 C.3   185  TYR185      0.1736
     62  C         -0.3490  -39.4250   28.1060 C.2   185  TYR185      0.2595
     63  O          0.5120  -39.3320   27.2370 O.2   185  TYR185     -0.2718
     64  CB        -0.0500  -37.0670   28.8160 C.3   185  TYR185      0.0548
     65  CG        -0.1720  -36.0460   29.9280 C.ar  185  TYR185     -0.0200
     66  CD1        0.8270  -35.9150   30.8990 C.ar  185  TYR185     -0.0009
     67  CD2       -1.3000  -35.2130   30.0150 C.ar  185  TYR185     -0.0009
     68  CE1        0.7040  -34.9880   31.9190 C.ar  185  TYR185      0.0417
     69  CE2       -1.4310  -34.2850   31.0320 C.ar  185  TYR185      0.0417
     70  CZ        -0.4280  -34.1740   31.9830 C.ar  185  TYR185      0.1957
     71  OH        -0.5620  -33.2490   32.9990 O.3   185  TYR185     -0.2866
     72  N         -1.2840  -40.3660   28.1070 N.am  186  VAL186     -0.1966
     73  CA        -1.3820  -41.3600   27.0510 C.3   186  VAL186      0.1727
     74  C         -2.5140  -41.0860   26.0410 C.2   186  VAL186      0.2616
     75  O         -3.7080  -40.9960   26.3990 O.2   186  VAL186     -0.2715
     76  CB        -1.5620  -42.7630   27.6430 C.3   186  VAL186      0.0290
     77  CG1       -1.2980  -43.8010   26.5640 C.3   186  VAL186      0.0023
     78  CG2       -0.6510  -42.9680   28.8650 C.3   186  VAL186      0.0023
     79  N         -2.1420  -40.9640   24.7730 N.am  187  GLY187     -0.1955
     80  CA        -3.1330  -40.7090   23.7400 C.3   187  GLY187      0.1869
     81  C         -3.0210  -41.7270   22.6290 C.2   187  GLY187      0.2309
     82  O         -2.0690  -42.5090   22.6210 O.2   187  GLY187     -0.2863
     83  N         -7.1390  -29.8750   28.7640 N.3   224  PHE224     -0.1241
     84  CA        -6.0870  -29.8330   29.7780 C.3   224  PHE224      0.1605
     85  C         -5.3910  -28.4730   29.8140 C.2   224  PHE224      0.2264
     86  O         -5.2060  -27.8460   28.7690 O.2   224  PHE224     -0.2867
     87  CB        -5.0650  -30.9600   29.5410 C.3   224  PHE224      0.0534
     88  CG        -5.6410  -32.3550   29.6680 C.ar  224  PHE224     -0.0203
     89  CD1       -6.0820  -32.8330   30.9110 C.ar  224  PHE224     -0.0042
     90  CD2       -5.7350  -33.1920   28.5430 C.ar  224  PHE224     -0.0042
     91  CE1       -6.6140  -34.1280   31.0450 C.ar  224  PHE224     -0.0003
     92  CE2       -6.2590  -34.4890   28.6470 C.ar  224  PHE224     -0.0003
     93  CZ        -6.7030  -34.9640   29.9050 C.ar  224  PHE224     -0.0000
     94  N         -2.3240  -26.4230   29.9050 N.3   226  TRP226     -0.1241
     95  CA        -0.8930  -26.4720   29.6570 C.3   226  TRP226      0.1605
     96  C         -0.4180  -25.0270   29.5240 C.2   226  TRP226      0.2264
     97  O         -0.2230  -24.5180   28.4080 O.2   226  TRP226     -0.2867
     98  CB        -0.6210  -27.2740   28.3750 C.3   226  TRP226      0.0550
     99  CG         0.7660  -27.8720   28.2350 C.ar  226  TRP226      0.0003
    100  CD1        1.5690  -27.8230   27.1240 C.ar  226  TRP226      0.0946
    101  CD2        1.4840  -28.6430   29.2160 C.ar  226  TRP226      0.0152
    102  NE1        2.7380  -28.5140   27.3540 N.ar  226  TRP226     -0.2442
    103  CE2        2.7160  -29.0280   28.6230 C.ar  226  TRP226      0.0810
    104  CE3        1.2110  -29.0510   30.5260 C.ar  226  TRP226      0.0012
    105  CZ2        3.6720  -29.8010   29.3050 C.ar  226  TRP226      0.0191
    106  CZ3        2.1650  -29.8240   31.2040 C.ar  226  TRP226      0.0001
    107  CH2        3.3810  -30.1900   30.5870 C.ar  226  TRP226      0.0015
    108  N         -6.3040  -27.7190   26.1140 N.3   231  LEU231     -0.1245
    109  CA        -6.1270  -28.6870   25.0440 C.3   231  LEU231      0.1561
    110  C         -7.1950  -29.7480   24.9830 C.2   231  LEU231      0.2260
    111  O         -7.4110  -30.4790   25.9430 O.2   231  LEU231     -0.2867
    112  CB        -4.8020  -29.4250   25.1990 C.3   231  LEU231      0.0270
    113  CG        -3.4450  -28.7410   25.1950 C.3   231  LEU231      0.0019
    114  CD1       -3.2750  -27.9320   23.9250 C.3   231  LEU231      0.0001
    115  CD2       -3.3030  -27.8930   26.4390 C.3   231  LEU231      0.0001
    116  N         -8.2640  -33.0240   22.6060 N.3   233  PRO233     -0.2116
    117  CA        -7.6080  -33.8720   21.6010 C.3   233  PRO233      0.1372
    118  C         -7.8890  -33.4770   20.1430 C.2   233  PRO233      0.2244
    119  O         -7.0870  -33.7440   19.2560 O.2   233  PRO233     -0.2868
    120  CB        -8.1200  -35.2720   21.9480 C.3   233  PRO233      0.0268
    121  CG        -9.4360  -34.9980   22.6450 C.3   233  PRO233      0.0207
    122  CD        -9.1000  -33.8300   23.5120 C.3   233  PRO233      0.0892
    123  N         -3.5400  -28.7680   15.8130 N.3   314  TYR314     -0.1241
    124  CA        -2.3730  -29.5880   16.1700 C.3   314  TYR314      0.1605
    125  C         -1.4920  -29.9400   14.9320 C.2   314  TYR314      0.2264
    126  O         -1.8610  -29.6770   13.7730 O.2   314  TYR314     -0.2867
    127  CB        -2.8170  -30.8730   16.8470 C.3   314  TYR314      0.0534
    128  CG        -3.3560  -30.7020   18.2420 C.ar  314  TYR314     -0.0201
    129  CD1       -2.5380  -30.2580   19.2800 C.ar  314  TYR314     -0.0009
    130  CD2       -4.6670  -31.0580   18.5440 C.ar  314  TYR314     -0.0009
    131  CE1       -3.0100  -30.1800   20.5840 C.ar  314  TYR314      0.0417
    132  CE2       -5.1450  -30.9840   19.8440 C.ar  314  TYR314      0.0417
    133  CZ        -4.3170  -30.5440   20.8600 C.ar  314  TYR314      0.1957
    134  OH        -4.8170  -30.4470   22.1420 O.3   314  TYR314     -0.2866
@<TRIPOS>BOND
     1   126   125    2
     2   125   124    1
     3   123   124    1
     4    21    20    1
     5    21    22    1
     6    23    22    1
     7    23    24    1
     8   124   127    1
     9    20    17    1
    10   127   128    1
    11    33    32    1
    12    17    18    1
    13    17    16    1
    14    11    10    2
    15    18    19    2
    16   128   130   ar
    17   128   129   ar
    18    16    10   am
    19    10     9    1
    20    25    26    1
    21   130   132   ar
    22    32    31    1
    23    26    27    1
    24    26    29    1
    25    27    28    2
    26    31    30    1
    27   119   118    2
    28   129   131   ar
    29     8     9    1
    30     9    12    1
    31   132   133   ar
    32    30    29    1
    33   118   117    1
    34    47    45    1
    35   131   133   ar
    36    12    13    1
    37   133   134    1
    38   117   120    1
    39   117   116    1
    40   120   121    1
    41    45    46    1
    42    45    42    1
    43    13    15    1
    44    13    14    1
    45    41    42    1
    46   116   122    1
    47    82    81    2
    48    81    80    1
    49   121   122    1
    50    42    43    1
    51    80    79    1
    52    40    38    1
    53   114   113    1
    54    43    44    2
    55     3     2    1
    56     3     4    2
    57     5     2    1
    58     5     6    1
    59     2     1    1
    60    34    35    1
    61    79    74   am
    62   110   109    1
    63   110   111    2
    64   109   112    1
    65   109   108    1
    66   113   112    1
    67   113   115    1
    68    38    35    1
    69    38    39    1
    70    35    36    1
    71     6     7    1
    72     1     7    1
    73    74    75    2
    74    74    73    1
    75    77    76    1
    76    36    37    2
    77    73    76    1
    78    73    72    1
    79   100   102   ar
    80   100    99   ar
    81    63    62    2
    82   102   103   ar
    83    52    49    1
    84    52    53    1
    85    48    49    1
    86    76    78    1
    87    54    53   ar
    88    54    56   ar
    89    49    50    1
    90    53    55   ar
    91    62    72   am
    92    62    61    1
    93    56    58   ar
    94    99    98    1
    95    99   101   ar
    96    98    95    1
    97    97    96    2
    98    90    92   ar
    99    90    88   ar
   100   103   101   ar
   101   103   105   ar
   102    92    93   ar
   103    83    84    1
   104    86    85    2
   105    64    61    1
   106    64    65    1
   107    55    57   ar
   108    58    57   ar
   109    58    59    1
   110   101   104   ar
   111    61    60    1
   112   105   107   ar
   113    50    51    2
   114    96    95    1
   115    87    88    1
   116    87    84    1
   117    95    94    1
   118    88    89   ar
   119    84    85    1
   120    93    91   ar
   121    65    67   ar
   122    65    66   ar
   123    67    69   ar
   124   104   106   ar
   125   107   106   ar
   126    66    68   ar
   127    89    91   ar
   128    69    70   ar
   129    68    70   ar
   130    70    71    1
