@<TRIPOS>MOLECULE
tmp/1rtaB00.pdb
 225 220 0 0 0
SMALL
GASTEIGER

@<TRIPOS>ATOM
      1  N         29.1900    7.9940   25.4900 N.3     4  ALA4       -0.1245
      2  CA        28.6180    8.5400   26.7300 C.3     4  ALA4        0.1562
      3  C         29.6310    8.8300   27.8070 C.2     4  ALA4        0.2260
      4  O         29.5560    9.9120   28.3580 O.2     4  ALA4       -0.2867
      5  CB        27.6670    7.6090   27.3830 C.3     4  ALA4        0.0290
      6  N         32.0440   11.6970   26.4100 N.3     7  LYS7       -0.1231
      7  CA        31.2110   12.8280   26.5010 C.3     7  LYS7        0.1693
      8  C         31.3630   13.3220   27.9100 C.2     7  LYS7        0.2592
      9  O         31.6900   14.4940   28.0850 O.2     7  LYS7       -0.2718
     10  CB        29.8460   12.4000   26.2510 C.3     7  LYS7        0.0285
     11  CG        28.8210   13.5500   26.1750 C.3     7  LYS7        0.0035
     12  CD        27.4110   13.0100   26.3860 C.3     7  LYS7        0.0206
     13  CE        26.7930   12.6320   25.0560 C.3     7  LYS7        0.1093
     14  NZ        27.6710   11.8870   24.1350 N.3     7  LYS7       -0.1314
     15  N         31.0790   12.4780   28.9090 N.am    8  PHE8       -0.1976
     16  CA        31.2770   12.8490   30.2730 C.3     8  PHE8        0.1639
     17  C         32.6490   13.5130   30.5190 C.2     8  PHE8        0.2290
     18  O         32.7410   14.5700   31.1880 O.2     8  PHE8       -0.2864
     19  CB        31.1250   11.6120   31.1680 C.3     8  PHE8        0.0560
     20  CG        31.3340   11.9530   32.6380 C.ar    8  PHE8       -0.0200
     21  CD1       32.5930   11.9980   33.1760 C.ar    8  PHE8       -0.0042
     22  CD2       30.2580   12.2830   33.4390 C.ar    8  PHE8       -0.0042
     23  CE1       32.7740   12.3910   34.4810 C.ar    8  PHE8       -0.0003
     24  CE2       30.4450   12.6650   34.7540 C.ar    8  PHE8       -0.0003
     25  CZ        31.7050   12.7310   35.2700 C.ar    8  PHE8       -0.0000
     26  N         32.7810   16.9420   28.8520 N.3    11  GLN11      -0.1231
     27  CA        31.9280   17.8270   29.5570 C.3    11  GLN11       0.1698
     28  C         32.2170   18.0050   31.0370 C.2    11  GLN11       0.2592
     29  O         31.7270   18.9960   31.5580 O.2    11  GLN11      -0.2718
     30  CB        30.6340   17.2420   29.2630 C.3    11  GLN11       0.0381
     31  CG        29.2690   17.8190   29.4990 C.3    11  GLN11       0.0905
     32  CD        28.4500   17.0430   28.4740 C.2    11  GLN11       0.2608
     33  OE1       27.8280   16.0310   28.7690 O.2    11  GLN11      -0.2717
     34  NE2       28.5600   17.4610   27.2130 N.am   11  GLN11      -0.0878
     35  N         32.9320   17.1500   31.7780 N.am   12  HIS12      -0.1976
     36  CA        32.9510   17.3350   33.2100 C.3    12  HIS12       0.1656
     37  C         34.2560   17.3480   33.8090 C.2    12  HIS12       0.2291
     38  O         34.3470   17.7640   34.9100 O.2    12  HIS12      -0.2864
     39  CB        32.1470   16.2830   33.9930 C.3    12  HIS12       0.0771
     40  CG        30.7120   16.7190   33.8850 C.ar   12  HIS12       0.0820
     41  ND1       30.1640   17.7510   34.4280 N.ar   12  HIS12      -0.2267
     42  CD2       29.7590   16.2150   33.0240 C.ar   12  HIS12       0.1154
     43  CE1       28.9770   17.9030   33.9390 C.ar   12  HIS12       0.1986
     44  NE2       28.7130   16.9840   33.0880 N.ar   12  HIS12      -0.2212
     45  N         25.1460   24.7910   19.8960 N.3    38  ASP38      -0.1225
     46  CA        23.7440   25.1400   19.4790 C.3    38  ASP38       0.1805
     47  C         23.0470   25.4510   20.7800 C.2    38  ASP38       0.2598
     48  O         22.3280   26.4340   20.9830 O.2    38  ASP38      -0.2718
     49  CB        22.9760   24.0170   18.8160 C.3    38  ASP38       0.1424
     50  CG        23.6660   23.4170   17.5980 C.2    38  ASP38       0.3668
     51  OD1       23.7290   24.1570   16.5900 O.co2  38  ASP38      -0.2456
     52  OD2       24.1180   22.2320   17.6880 O.co2  38  ASP38      -0.2456
     53  N         23.4330   24.5250   21.6710 N.am   39  ARG39      -0.1966
     54  CA        23.3460   24.7050   23.1120 C.3    39  ARG39       0.1729
     55  C         23.9790   26.0710   23.4470 C.2    39  ARG39       0.2616
     56  O         24.8060   26.6450   22.7150 O.2    39  ARG39      -0.2715
     57  CB        24.1910   23.6420   23.9920 C.3    39  ARG39       0.0348
     58  CG        24.6680   22.2510   23.5210 C.3    39  ARG39       0.0492
     59  CD        23.5140   21.4040   22.9270 C.3    39  ARG39       0.2205
     60  NE        22.9350   21.5800   21.5540 N.pl3  39  ARG39      -0.0865
     61  CZ        21.6800   22.0680   21.1590 C.cat  39  ARG39       0.5346
     62  NH1       20.8230   22.6720   21.9870 N.pl3  39  ARG39       0.1354
     63  NH2       21.2810   22.0990   19.8390 N.pl3  39  ARG39       0.1354
     64  N         23.3820   26.4550   24.5540 N.am   40  CYS40      -0.1954
     65  CA        23.8570   27.4070   25.4940 C.3    40  CYS40       0.1843
     66  C         23.4780   26.6330   26.7750 C.2    40  CYS40       0.2625
     67  O         22.2970   26.5450   27.2030 O.2    40  CYS40      -0.2714
     68  CB        23.0990   28.6630   25.3690 C.3    40  CYS40       0.0997
     69  SG        24.5160   29.7650   25.4680 S.3    40  CYS40      -0.0797
     70  N         24.4840   25.9280   27.3250 N.am   41  LYS41      -0.1964
     71  CA        24.1040   24.9970   28.3720 C.3    41  LYS41       0.1713
     72  C         23.7630   25.8070   29.6200 C.2    41  LYS41       0.2458
     73  O         24.3500   26.8610   29.8020 O.2    41  LYS41      -0.2730
     74  CB        25.2360   23.9400   28.6550 C.3    41  LYS41       0.0311
     75  CG        24.5700   22.6050   29.0610 C.3    41  LYS41       0.0038
     76  CD        25.1590   21.2740   28.5820 C.3    41  LYS41       0.0206
     77  CE        26.2270   20.6860   29.5430 C.3    41  LYS41       0.1093
     78  NZ        25.6510   20.0140   30.7140 N.3    41  LYS41      -0.1314
     79  N         22.7990   25.4370   30.4620 N.am   42  PRO42      -0.2716
     80  CA        22.4300   26.2960   31.5830 C.3    42  PRO42       0.1536
     81  C         23.5460   26.3870   32.6870 C.2    42  PRO42       0.2598
     82  O         23.7780   27.3700   33.3920 O.2    42  PRO42      -0.2715
     83  CB        21.0120   25.6690   32.0120 C.3    42  PRO42       0.0310
     84  CG        20.6700   24.5560   31.0320 C.3    42  PRO42       0.0237
     85  CD        21.9770   24.1980   30.3860 C.3    42  PRO42       0.0939
     86  N         24.3000   25.3430   32.8980 N.am   43  VAL43      -0.1964
     87  CA        25.2130   25.2210   33.9910 C.3    43  VAL43       0.1727
     88  C         25.9910   23.9670   33.6240 C.2    43  VAL43       0.2616
     89  O         25.5240   23.1170   32.8520 O.2    43  VAL43      -0.2715
     90  CB        24.3880   25.0820   35.3860 C.3    43  VAL43       0.0290
     91  CG1       23.0240   24.3650   35.2030 C.3    43  VAL43       0.0023
     92  CG2       25.2560   24.2890   36.4240 C.3    43  VAL43       0.0023
     93  N         27.2100   23.9400   34.1120 N.am   44  ASN44      -0.1958
     94  CA        28.0760   22.7890   33.9820 C.3    44  ASN44       0.1819
     95  C         29.1300   22.7850   35.1060 C.2    44  ASN44       0.2621
     96  O         29.6980   23.8080   35.4780 O.2    44  ASN44      -0.2715
     97  CB        28.7290   22.8650   32.6240 C.3    44  ASN44       0.1195
     98  CG        29.4210   21.5960   32.1620 C.2    44  ASN44       0.2630
     99  OD1       28.9330   20.5320   32.4580 O.2    44  ASN44      -0.2716
    100  ND2       30.4780   21.6110   31.3730 N.am   44  ASN44      -0.0877
    101  N         29.4200   21.6320   35.6790 N.am   45  THR45      -0.1951
    102  CA        30.3780   21.5880   36.7210 C.3    45  THR45       0.1897
    103  C         31.5110   20.6740   36.2150 C.2    45  THR45       0.2313
    104  O         31.2620   19.8250   35.3520 O.2    45  THR45      -0.2863
    105  CB        29.5420   21.2040   38.0400 C.3    45  THR45       0.1794
    106  OG1       30.2860   20.2130   38.6750 O.3    45  THR45      -0.2208
    107  CG2       28.1150   20.7860   37.8370 C.3    45  THR45       0.0378
    108  N         19.6300    8.9410   42.2710 N.3    65  CYS65      -0.1221
    109  CA        19.7470    9.9470   41.2480 C.3    65  CYS65       0.1808
    110  C         18.7420   11.0340   41.5890 C.2    65  CYS65       0.2601
    111  O         17.6570   10.7230   42.1140 O.2    65  CYS65      -0.2717
    112  CB        19.4530    9.3760   39.8730 C.3    65  CYS65       0.0970
    113  SG        20.7590    8.3440   39.1200 S.3    65  CYS65      -0.0800
    114  N         19.1180   12.3050   41.3400 N.am   66  LYS66      -0.1965
    115  CA        18.2160   13.4670   41.4550 C.3    66  LYS66       0.1728
    116  C         16.8990   13.1200   40.7220 C.2    66  LYS66       0.2616
    117  O         15.7820   13.2140   41.1860 O.2    66  LYS66      -0.2715
    118  CB        18.9700   14.6320   40.8030 C.3    66  LYS66       0.0311
    119  CG        18.5950   16.1200   40.8430 C.3    66  LYS66       0.0038
    120  CD        19.7220   16.9760   40.2760 C.3    66  LYS66       0.0206
    121  CE        19.8840   16.9060   38.7270 C.3    66  LYS66       0.1093
    122  NZ        20.3410   18.1540   38.0930 N.3    66  LYS66      -0.1314
    123  N         17.0530   12.5340   39.5460 N.am   67  ASN67      -0.1972
    124  CA        15.9560   12.1410   38.7130 C.3    67  ASN67       0.1688
    125  C         15.3200   10.7420   38.9700 C.2    67  ASN67       0.2292
    126  O         14.4710   10.2950   38.2110 O.2    67  ASN67      -0.2864
    127  CB        16.5340   12.4020   37.2780 C.3    67  ASN67       0.1181
    128  CG        17.8120   11.6430   36.8460 C.2    67  ASN67       0.2629
    129  OD1       18.9760   12.1510   36.8990 O.2    67  ASN67      -0.2716
    130  ND2       17.5440   10.3540   36.5060 N.am   67  ASN67      -0.0877
    131  N         16.7680    7.3130   39.6850 N.3    69  GLN69      -0.1245
    132  CA        17.4390    6.1220   39.1580 C.3    69  GLN69       0.1566
    133  C         18.2990    5.6060   40.2890 C.2    69  GLN69       0.2260
    134  O         18.7610    6.3950   41.1520 O.2    69  GLN69      -0.2867
    135  CB        18.3080    6.5670   37.9540 C.3    69  GLN69       0.0367
    136  CG        18.3640    5.9440   36.5760 C.3    69  GLN69       0.0905
    137  CD        17.0220    5.9980   35.8150 C.2    69  GLN69       0.2608
    138  OE1       16.1070    6.7460   36.1770 O.2    69  GLN69      -0.2717
    139  NE2       16.7970    5.2250   34.7370 N.am   69  GLN69      -0.0878
    140  N         21.4640    4.0910   39.9290 N.3    71  ASN71      -0.1240
    141  CA        22.8310    3.9950   39.5680 C.3    71  ASN71       0.1653
    142  C         23.7110    5.2210   39.6750 C.2    71  ASN71       0.2266
    143  O         24.6630    5.4140   38.8830 O.2    71  ASN71      -0.2867
    144  CB        22.9520    3.4920   38.1690 C.3    71  ASN71       0.1155
    145  CG        22.3110    4.3250   37.0970 C.2    71  ASN71       0.2627
    146  OD1       21.2710    4.8770   37.3700 O.2    71  ASN71      -0.2716
    147  ND2       22.7120    4.3700   35.8470 N.am   71  ASN71      -0.0877
    148  N         27.6470   28.8560   35.8930 N.3    85  ARG85      -0.1245
    149  CA        26.2360   29.0580   35.8790 C.3    85  ARG85       0.1563
    150  C         25.9190   30.0950   34.8380 C.2    85  ARG85       0.2260
    151  O         26.6010   31.1150   34.8820 O.2    85  ARG85      -0.2867
    152  CB        25.8720   29.4230   37.3300 C.3    85  ARG85       0.0307
    153  CG        25.2630   28.1530   37.8650 C.3    85  ARG85       0.0489
    154  CD        24.6720   28.0420   39.3320 C.3    85  ARG85       0.2205
    155  NE        25.5240   28.0210   40.5560 N.pl3  85  ARG85      -0.0865
    156  CZ        26.1120   26.9240   41.0640 C.cat  85  ARG85       0.5346
    157  NH1       26.0120   25.7530   40.3590 N.pl3  85  ARG85       0.1354
    158  NH2       26.8160   27.0020   42.2430 N.pl3  85  ARG85       0.1354
    159  N         26.3050    9.3330   37.9670 N.3   109  ALA109     -0.1231
    160  CA        25.6800    8.1890   37.4200 C.3   109  ALA109      0.1694
    161  C         26.7330    7.4310   36.5950 C.2   109  ALA109      0.2592
    162  O         27.5150    7.9950   35.7730 O.2   109  ALA109     -0.2718
    163  CB        24.6420    8.6470   36.5180 C.3   109  ALA109      0.0304
    164  N         26.6630    6.1310   36.8860 N.am  110  CYS110     -0.1956
    165  CA        27.4530    5.1540   36.1930 C.3   110  CYS110      0.1843
    166  C         26.6520    4.1030   35.4590 C.2   110  CYS110      0.2625
    167  O         25.5180    3.6990   35.7600 O.2   110  CYS110     -0.2714
    168  CB        28.3760    4.4270   37.1380 C.3   110  CYS110      0.0997
    169  SG        29.4660    5.5610   37.9910 S.3   110  CYS110     -0.0797
    170  N         27.4200    3.6630   34.4820 N.am  111  GLU111     -0.1977
    171  CA        27.1100    2.4290   33.7670 C.3   111  GLU111      0.1602
    172  C         28.2120    1.9840   32.8330 C.2   111  GLU111      0.2287
    173  O         29.2560    2.6320   32.7400 O.2   111  GLU111     -0.2864
    174  CB        25.8190    2.5070   32.9390 C.3   111  GLU111      0.0415
    175  CG        25.9750    3.3100   31.6970 C.3   111  GLU111      0.1163
    176  CD        24.6830    3.9620   31.2460 C.2   111  GLU111      0.3649
    177  OE1       23.9880    4.4530   32.1410 O.co2 111  GLU111     -0.2457
    178  OE2       24.4240    3.9620   30.0110 O.co2 111  GLU111     -0.2457
    179  N         28.9940    8.3060   33.1550 N.3   118  VAL118     -0.1231
    180  CA        28.3640    8.8320   31.9320 C.3   118  VAL118      0.1692
    181  C         27.6090   10.1580   32.2240 C.2   118  VAL118      0.2592
    182  O         27.4630   10.9530   31.2960 O.2   118  VAL118     -0.2718
    183  CB        27.3110    7.8450   31.3070 C.3   118  VAL118      0.0266
    184  CG1       28.1300    6.8760   30.4920 C.3   118  VAL118      0.0020
    185  CG2       26.3920    7.1320   32.3550 C.3   118  VAL118      0.0020
    186  N         27.0980   10.3770   33.4730 N.am  119  HIS119     -0.1962
    187  CA        26.2840   11.4830   33.8950 C.3   119  HIS119      0.1787
    188  C         26.7470   12.2200   35.1660 C.2   119  HIS119      0.2620
    189  O         26.8250   11.6120   36.2210 O.2   119  HIS119     -0.2715
    190  CB        24.8840   11.0080   34.1200 C.3   119  HIS119      0.0785
    191  CG        23.8500   11.9670   34.8120 C.ar  119  HIS119      0.0821
    192  ND1       23.2130   13.0690   34.3940 N.ar  119  HIS119     -0.2267
    193  CD2       23.2410   11.7270   36.0490 C.ar  119  HIS119      0.1154
    194  CE1       22.3010   13.4660   35.2480 C.ar  119  HIS119      0.1986
    195  NE2       22.3270   12.6450   36.2370 N.ar  119  HIS119     -0.2212
    196  N         26.9880   13.5240   35.1690 N.am  120  PHE120     -0.1960
    197  CA        27.3230   14.2810   36.3550 C.3   120  PHE120      0.1771
    198  C         25.9350   14.6420   36.8620 C.2   120  PHE120      0.2620
    199  O         25.1170   15.2120   36.1480 O.2   120  PHE120     -0.2715
    200  CB        28.0600   15.5070   35.9640 C.3   120  PHE120      0.0574
    201  CG        28.6760   16.1480   37.1180 C.ar  120  PHE120     -0.0200
    202  CD1       29.8520   15.6580   37.5750 C.ar  120  PHE120     -0.0042
    203  CD2       28.0200   17.1470   37.7610 C.ar  120  PHE120     -0.0042
    204  CE1       30.3640   16.1810   38.7240 C.ar  120  PHE120     -0.0003
    205  CE2       28.5680   17.6470   38.9130 C.ar  120  PHE120     -0.0003
    206  CZ        29.7320   17.1740   39.4020 C.ar  120  PHE120     -0.0000
    207  N         25.6550   14.2590   38.0940 N.am  121  ASP121     -0.1957
    208  CA        24.2970   14.3630   38.5240 C.3   121  ASP121      0.1840
    209  C         24.0140   15.5760   39.4230 C.2   121  ASP121      0.2622
    210  O         23.1200   16.3570   39.0610 O.2   121  ASP121     -0.2715
    211  CB        23.9440   12.9910   39.1740 C.3   121  ASP121      0.1450
    212  CG        22.4390   12.8320   39.5060 C.2   121  ASP121      0.3671
    213  OD1       21.5830   13.1420   38.6710 O.co2 121  ASP121     -0.2456
    214  OD2       22.1160   12.4340   40.6250 O.co2 121  ASP121     -0.2456
    215  N         24.8110   15.7050   40.5110 N.am  122  ALA122     -0.1963
    216  CA        24.7610   16.7380   41.5390 C.3   122  ALA122      0.1728
    217  C         26.0920   16.8610   42.2900 C.2   122  ALA122      0.2616
    218  O         26.9930   16.0770   42.0200 O.2   122  ALA122     -0.2715
    219  CB        23.6650   16.3920   42.5340 C.3   122  ALA122      0.0334
    220  N         26.2570   17.8270   43.1950 N.am  123  SER123     -0.1950
    221  CA        27.3780   18.0050   44.1300 C.3   123  SER123      0.1924
    222  C         26.7510   18.2760   45.5030 C.2   123  SER123      0.2314
    223  O         25.6100   18.7350   45.4980 O.2   123  SER123     -0.2863
    224  CB        28.2780   19.2240   43.7500 C.3   123  SER123      0.2116
    225  OG        27.5760   20.4010   43.3080 O.3   123  SER123     -0.2180
@<TRIPOS>BOND
     1    51    50   ar
     2    50    52   ar
     3    50    49    1
     4    49    46    1
     5    46    45    1
     6    46    47    1
     7    63    61    1
     8    47    48    2
     9    47    53   am
    10    61    60    2
    11    61    62    1
    12    60    59    1
    13    53    54    1
    14    56    55    2
    15    59    58    1
    16    54    55    1
    17    54    57    1
    18    55    64   am
    19    58    57    1
    20    14    13    1
    21    64    65    1
    22    13    12    1
    23    68    69    1
    24    68    65    1
    25     1     2    1
    26    65    66    1
    27    11    10    1
    28    11    12    1
    29    10     7    1
    30     6     7    1
    31     7     8    1
    32     2     5    1
    33     2     3    1
    34    66    67    2
    35    66    70   am
    36    34    32   am
    37    70    71    1
    38     3     4    2
    39     8     9    2
    40     8    15   am
    41    71    74    1
    42    71    72    1
    43    32    33    2
    44    32    31    1
    45    76    75    1
    46    76    77    1
    47    74    75    1
    48    26    27    1
    49    15    16    1
    50    30    31    1
    51    30    27    1
    52    77    78    1
    53    27    28    1
    54    72    73    2
    55    72    79   am
    56   178   176   ar
    57    16    17    1
    58    16    19    1
    59    85    79    1
    60    85    84    1
    61    79    80    1
    62   184   183    1
    63    17    18    2
    64    84    83    1
    65    28    29    2
    66    28    35   am
    67    19    20    1
    68   176   175    1
    69   176   177   ar
    70   182   181    2
    71   183   180    1
    72   183   185    1
    73   100    98   am
    74    80    83    1
    75    80    81    1
    76   175   174    1
    77    35    36    1
    78   180   181    1
    79   180   179    1
    80    98    99    2
    81    98    97    1
    82   181   186   am
    83    97    94    1
    84    20    21   ar
    85    20    22   ar
    86    81    86   am
    87    81    82    2
    88   173   172    2
    89   172   171    1
    90    89    88    2
    91    86    87    1
    92   174   171    1
    93    42    44   ar
    94    42    40   ar
    95    44    43   ar
    96    21    23   ar
    97    36    37    1
    98    36    39    1
    99    22    24   ar
   100   186   187    1
   101    88    87    1
   102    88    93   am
   103   171   170    1
   104    37    38    2
   105    40    39    1
   106    40    41   ar
   107   187   190    1
   108   187   188    1
   109    43    41   ar
   110    94    93    1
   111    94    95    1
   112    87    90    1
   113   190   191    1
   114   192   191   ar
   115   192   194   ar
   116    23    25   ar
   117   170   166   am
   118   139   137   am
   119    24    25   ar
   120   191   193   ar
   121   150   151    2
   122   150   149    1
   123    95    96    2
   124    95   101   am
   125   188   196   am
   126   188   189    2
   127   196   197    1
   128    91    90    1
   129   194   195   ar
   130   104   103    2
   131    90    92    1
   132   166   167    2
   133   166   165    1
   134   101   102    1
   135   162   161    2
   136   137   138    2
   137   137   136    1
   138   147   145   am
   139   149   148    1
   140   149   152    1
   141   200   197    1
   142   200   201    1
   143   193   195   ar
   144   199   198    2
   145   165   164    1
   146   165   168    1
   147   103   102    1
   148   197   198    1
   149   130   128   am
   150   163   160    1
   151   136   135    1
   152   161   164   am
   153   161   160    1
   154   102   105    1
   155   128   129    2
   156   128   127    1
   157   198   207   am
   158   145   146    2
   159   145   144    1
   160   201   202   ar
   161   201   203   ar
   162   168   169    1
   163   127   124    1
   164   152   153    1
   165   160   159    1
   166   202   204   ar
   167   203   205   ar
   168   107   105    1
   169   153   154    1
   170   135   132    1
   171   105   106    1
   172   122   121    1
   173   207   208    1
   174   144   141    1
   175   126   125    2
   176   208   211    1
   177   208   209    1
   178   213   212   ar
   179   124   125    1
   180   124   123    1
   181   204   206   ar
   182   121   120    1
   183   143   142    2
   184   205   206   ar
   185   210   209    2
   186   113   112    1
   187   132   131    1
   188   132   133    1
   189   211   212    1
   190   154   155    1
   191   209   215   am
   192   212   214   ar
   193   123   116   am
   194   141   142    1
   195   141   140    1
   196   112   109    1
   197   120   119    1
   198   133   134    2
   199   157   156    1
   200   215   216    1
   201   155   156    2
   202   116   117    2
   203   116   115    1
   204   118   119    1
   205   118   115    1
   206   156   158    1
   207   109   110    1
   208   109   108    1
   209   114   115    1
   210   114   110   am
   211   216   217    1
   212   216   219    1
   213   110   111    2
   214   218   217    2
   215   217   220   am
   216   220   221    1
   217   225   224    1
   218   224   221    1
   219   221   222    1
   220   223   222    2
