@<TRIPOS>MOLECULE
tmp/1rtfB01.pdb
 117 117 0 0 0
SMALL
GASTEIGER

@<TRIPOS>ATOM
      1  N         -2.3580   26.8420   45.0760 N.3    44  HIS44      -0.1241
      2  CA        -3.8050   26.6590   45.1570 C.3    44  HIS44       0.1621
      3  C         -4.2540   25.2670   44.7610 C.2    44  HIS44       0.2264
      4  O         -5.3590   24.8620   45.1040 O.2    44  HIS44      -0.2867
      5  CB        -4.5660   27.7300   44.3660 C.3    44  HIS44       0.0745
      6  CG        -4.5960   27.5160   42.8800 C.ar   44  HIS44       0.0817
      7  ND1       -3.6890   28.0630   42.0000 N.ar   44  HIS44      -0.2268
      8  CD2       -5.5110   26.8840   42.1040 C.ar   44  HIS44       0.1154
      9  CE1       -4.0810   27.7650   40.7530 C.ar   44  HIS44       0.1986
     10  NE2       -5.1840   27.0460   40.7670 N.ar   44  HIS44      -0.2212
     11  N         -5.2310   31.7760   25.7770 N.3   189  ASP189     -0.1225
     12  CA        -5.2050   32.0440   27.2010 C.3   189  ASP189      0.1805
     13  C         -5.1250   30.6990   27.8970 C.2   189  ASP189      0.2598
     14  O         -5.3260   29.6460   27.2700 O.2   189  ASP189     -0.2718
     15  CB        -6.5000   32.7700   27.6400 C.3   189  ASP189      0.1424
     16  CG        -6.4080   33.4030   29.0430 C.2   189  ASP189      0.3668
     17  OD1       -5.3230   33.4400   29.6590 O.co2 189  ASP189     -0.2456
     18  OD2       -7.4370   33.8940   29.5420 O.co2 189  ASP189     -0.2456
     19  N         -4.7150   30.7450   29.1620 N.am  190  ALA190     -0.1966
     20  CA        -4.6480   29.5710   30.0100 C.3   190  ALA190      0.1728
     21  C         -6.1140   29.3980   30.4500 C.2   190  ALA190      0.2616
     22  O         -6.9430   30.2750   30.2150 O.2   190  ALA190     -0.2715
     23  CB        -3.7360   29.8460   31.2200 C.3   190  ALA190      0.0334
     24  N         -6.4430   28.2790   31.0720 N.am  191  CYS191     -0.1954
     25  CA        -7.8100   28.0540   31.5120 C.3   191  CYS191      0.1843
     26  C         -7.7300   27.0710   32.6740 C.2   191  CYS191      0.2625
     27  O         -6.6490   26.5740   32.9870 O.2   191  CYS191     -0.2714
     28  CB        -8.6550   27.5060   30.3470 C.3   191  CYS191      0.0997
     29  SG       -10.4490   27.8050   30.4710 S.3   191  CYS191     -0.0797
     30  N         -8.8540   26.8230   33.3310 N.am  192  GLN192     -0.1977
     31  CA        -8.9190   25.9170   34.4750 C.3   192  GLN192      0.1601
     32  C         -8.3500   24.5700   34.1260 C.2   192  GLN192      0.2287
     33  O         -8.7400   23.9660   33.1270 O.2   192  GLN192     -0.2864
     34  CB       -10.3640   25.7570   34.9040 C.3   192  GLN192      0.0394
     35  CG       -11.0730   27.0900   35.0310 C.3   192  GLN192      0.0908
     36  CD       -12.5630   26.9460   35.1860 C.2   192  GLN192      0.2608
     37  OE1      -13.0510   25.9020   35.5960 O.2   192  GLN192     -0.2717
     38  NE2      -13.2960   28.0000   34.8790 N.am  192  GLN192     -0.0878
     39  N         -3.5210   25.4230   35.5650 N.3   195  SER195     -0.1217
     40  CA        -2.8260   25.9610   36.7120 C.3   195  SER195      0.1889
     41  C         -1.6390   25.1000   37.0890 C.2   195  SER195      0.2288
     42  O         -1.7000   23.8620   36.9900 O.2   195  SER195     -0.2866
     43  CB        -3.7680   26.0860   37.9080 C.3   195  SER195      0.2089
     44  OG        -4.7680   27.0330   37.6320 O.3   195  SER195     -0.2183
     45  N          1.2630   29.4330   35.7180 N.3   213  ILE213     -0.1231
     46  CA        -0.1450   29.6930   35.4140 C.3   213  ILE213      0.1692
     47  C         -0.9020   29.7070   36.7460 C.2   213  ILE213      0.2593
     48  O         -0.9550   28.6940   37.4390 O.2   213  ILE213     -0.2718
     49  CB        -0.6950   28.6020   34.4720 C.3   213  ILE213      0.0266
     50  CG1        0.1080   28.6100   33.1630 C.3   213  ILE213      0.0019
     51  CG2       -2.1550   28.8560   34.1950 C.3   213  ILE213      0.0020
     52  CD1       -0.1980   27.4840   32.1860 C.3   213  ILE213      0.0001
     53  N         -1.4540   30.8570   37.1140 N.am  214  SER214     -0.1938
     54  CA        -2.1250   31.0000   38.4000 C.3   214  SER214      0.2055
     55  C         -3.6370   31.1960   38.3440 C.2   214  SER214      0.2643
     56  O         -4.3800   30.3350   38.8060 O.2   214  SER214     -0.2714
     57  CB        -1.4500   32.1410   39.1930 C.3   214  SER214      0.2130
     58  OG        -1.8800   32.2130   40.5410 O.3   214  SER214     -0.2179
     59  N         -4.0950   32.3180   37.7950 N.am  215  TRP215     -0.1959
     60  CA        -5.5240   32.5780   37.7230 C.3   215  TRP215      0.1771
     61  C         -5.9140   33.5320   36.6170 C.2   215  TRP215      0.2620
     62  O         -5.0780   33.9730   35.8430 O.2   215  TRP215     -0.2715
     63  CB        -6.0790   33.0820   39.0650 C.3   215  TRP215      0.0590
     64  CG        -5.4990   34.3770   39.5790 C.ar  215  TRP215      0.0006
     65  CD1       -4.3290   34.5400   40.2790 C.ar  215  TRP215      0.0946
     66  CD2       -6.0580   35.6860   39.4300 C.ar  215  TRP215      0.0152
     67  NE1       -4.1220   35.8680   40.5590 N.ar  215  TRP215     -0.2442
     68  CE2       -5.1640   36.5960   40.0500 C.ar  215  TRP215      0.0810
     69  CE3       -7.2220   36.1830   38.8320 C.ar  215  TRP215      0.0012
     70  CZ2       -5.3990   37.9680   40.0820 C.ar  215  TRP215      0.0191
     71  CZ3       -7.4550   37.5460   38.8620 C.ar  215  TRP215      0.0001
     72  CH2       -6.5450   38.4240   39.4820 C.ar  215  TRP215      0.0015
     73  N         -7.2020   33.8330   36.5510 N.am  216  GLY216     -0.1940
     74  CA        -7.7280   34.7140   35.5340 C.3   216  GLY216      0.2014
     75  C         -9.2420   34.8000   35.6290 C.2   216  GLY216      0.2639
     76  O         -9.8810   34.0590   36.3780 O.2   216  GLY216     -0.2714
     77  N         -9.8150   35.7330   34.8900 N.am  217  LEU217     -0.1963
     78  CA       -11.2540   35.9450   34.8810 C.3   217  LEU217      0.1728
     79  C        -11.7570   35.2890   33.5950 C.2   217  LEU217      0.2617
     80  O        -11.4960   35.7720   32.4860 O.2   217  LEU217     -0.2715
     81  CB       -11.5350   37.4520   34.8970 C.3   217  LEU217      0.0311
     82  CG       -10.7420   38.2080   35.9710 C.3   217  LEU217      0.0022
     83  CD1      -10.8290   39.6780   35.7070 C.3   217  LEU217      0.0001
     84  CD2      -11.2260   37.8750   37.3640 C.3   217  LEU217      0.0001
     85  N        -12.4330   34.1560   33.7380 N.am  218  GLY218     -0.1940
     86  CA       -12.8990   33.4470   32.5620 C.3   218  GLY218      0.2014
     87  C        -11.6800   32.9060   31.8330 C.2   218  GLY218      0.2639
     88  O        -10.6400   32.6580   32.4510 O.2   218  GLY218     -0.2714
     89  N        -11.8000   32.6910   30.5310 N.am  219  CYS219     -0.1967
     90  CA       -10.6720   32.1900   29.7520 C.3   219  CYS219      0.1712
     91  C        -10.7330   32.8100   28.3770 C.2   219  CYS219      0.2296
     92  O        -11.6690   32.5590   27.6280 O.2   219  CYS219     -0.2864
     93  CB       -10.7030   30.6630   29.6170 C.3   219  CYS219      0.0983
     94  SG       -10.5830   29.7120   31.1650 S.3   219  CYS219     -0.0798
     95  N         -4.1900   37.0800   31.5000 N.3   226  GLY226     -0.1210
     96  CA        -4.1500   36.0010   32.4610 C.3   226  GLY226      0.1956
     97  C         -3.1240   36.4260   33.4990 C.2   226  GLY226      0.2612
     98  O         -2.2830   37.2910   33.2180 O.2   226  GLY226     -0.2717
     99  N         -3.2030   35.8700   34.7040 N.am  227  VAL227     -0.1965
    100  CA        -2.2510   36.2190   35.7420 C.3   227  VAL227      0.1727
    101  C         -1.3800   35.0050   36.0640 C.2   227  VAL227      0.2616
    102  O         -1.8490   33.8510   36.0640 O.2   227  VAL227     -0.2715
    103  CB        -2.9390   36.7560   36.9960 C.3   227  VAL227      0.0290
    104  CG1       -1.9070   37.3630   37.9260 C.3   227  VAL227      0.0023
    105  CG2       -4.0090   37.7810   36.6080 C.3   227  VAL227      0.0023
    106  N         -0.1100   35.2860   36.3410 N.am  228  TYR228     -0.1974
    107  CA         0.8940   34.2700   36.6090 C.3   228  TYR228      0.1639
    108  C          1.7310   34.6530   37.7940 C.2   228  TYR228      0.2290
    109  O          1.9200   35.8280   38.0750 O.2   228  TYR228     -0.2864
    110  CB         1.8350   34.1360   35.3940 C.3   228  TYR228      0.0560
    111  CG         1.1270   33.8100   34.0890 C.ar  228  TYR228     -0.0198
    112  CD1        0.4360   34.7980   33.3790 C.ar  228  TYR228     -0.0009
    113  CD2        1.1070   32.5080   33.5880 C.ar  228  TYR228     -0.0009
    114  CE1       -0.2660   34.5000   32.2130 C.ar  228  TYR228      0.0417
    115  CE2        0.4030   32.1950   32.4040 C.ar  228  TYR228      0.0417
    116  CZ        -0.2800   33.2000   31.7350 C.ar  228  TYR228      0.1957
    117  OH        -0.9910   32.9060   30.6030 O.3   228  TYR228     -0.2866
@<TRIPOS>BOND
     1    11    12    1
     2    12    15    1
     3    12    13    1
     4    14    13    2
     5    92    91    2
     6    15    16    1
     7    13    19   am
     8    91    90    1
     9    16    18   ar
    10    16    17   ar
    11    19    20    1
    12    93    90    1
    13    93    94    1
    14    90    89    1
    15    20    21    1
    16    20    23    1
    17    22    21    2
    18    28    29    1
    19    28    25    1
    20    21    24   am
    21    29    94    1
    22    89    87   am
    23   117   116    1
    24    24    25    1
    25    95    96    1
    26    25    26    1
    27   116   114   ar
    28   116   115   ar
    29    87    88    2
    30    87    86    1
    31    52    50    1
    32   114   112   ar
    33   115   113   ar
    34    96    97    1
    35    80    79    2
    36    86    85    1
    37    26    27    2
    38    26    30   am
    39    33    32    2
    40    50    49    1
    41    98    97    2
    42    30    31    1
    43   112   111   ar
    44    97    99   am
    45   113   111   ar
    46    79    85   am
    47    79    78    1
    48   111   110    1
    49    32    31    1
    50    51    49    1
    51    49    46    1
    52    31    34    1
    53    99   100    1
    54    38    36   am
    55    78    77    1
    56    78    81    1
    57    77    75   am
    58    81    82    1
    59    34    35    1
    60    35    36    1
    61    36    37    2
    62   110   107    1
    63    46    45    1
    64    46    47    1
    65    74    75    1
    66    74    73    1
    67    39    40    1
    68    75    76    2
    69    83    82    1
    70   100   101    1
    71   100   103    1
    72    62    61    2
    73    82    84    1
    74   102   101    2
    75   101   106   am
    76   106   107    1
    77    73    61   am
    78   105   103    1
    79   107   108    1
    80    61    60    1
    81    40    41    1
    82    40    43    1
    83    47    53   am
    84    47    48    2
    85    42    41    2
    86   103   104    1
    87    53    54    1
    88    44    43    1
    89    60    59    1
    90    60    63    1
    91   108   109    2
    92    59    55   am
    93    55    54    1
    94    55    56    2
    95    54    57    1
    96    69    71   ar
    97    69    66   ar
    98    71    72   ar
    99    63    64    1
   100    57    58    1
   101    66    64   ar
   102    66    68   ar
   103    72    70   ar
   104    64    65   ar
   105    68    70   ar
   106    68    67   ar
   107    65    67   ar
   108     9    10   ar
   109     9     7   ar
   110    10     8   ar
   111     7     6   ar
   112     8     6   ar
   113     6     5    1
   114     5     2    1
   115     3     4    2
   116     3     2    1
   117     1     2    1
