@<TRIPOS>MOLECULE
tmp/1rthA00.pdb
 137 134 0 0 0
SMALL
GASTEIGER

@<TRIPOS>ATOM
      1  N          7.6310  -29.2650   26.3960 N.3    95  PRO95      -0.2116
      2  CA         7.1540  -29.6000   25.0490 C.3    95  PRO95       0.1372
      3  C          6.1070  -28.5290   24.7560 C.2    95  PRO95       0.2244
      4  O          5.4520  -28.0570   25.6760 O.2    95  PRO95      -0.2868
      5  CB         6.4500  -30.9330   25.2600 C.3    95  PRO95       0.0268
      6  CG         7.0970  -31.4850   26.4620 C.3    95  PRO95       0.0207
      7  CD         7.3070  -30.3360   27.3480 C.3    95  PRO95       0.0892
      8  N          2.3860  -31.4870   19.4390 N.3   100  LEU100     -0.1231
      9  CA         1.6500  -32.7280   19.6730 C.3   100  LEU100      0.1693
     10  C          0.7650  -33.0690   18.4460 C.2   100  LEU100      0.2591
     11  O          0.4840  -32.2180   17.5970 O.2   100  LEU100     -0.2718
     12  CB         0.7410  -32.5570   20.8950 C.3   100  LEU100      0.0284
     13  CG         1.4120  -31.9740   22.1370 C.3   100  LEU100      0.0019
     14  CD1        0.4180  -31.8610   23.2800 C.3   100  LEU100      0.0001
     15  CD2        2.5470  -32.8590   22.5720 C.3   100  LEU100      0.0001
     16  N          0.4010  -34.3350   18.2800 N.am  101  LYS101     -0.1980
     17  CA        -0.4870  -34.7100   17.1610 C.3   101  LYS101      0.1596
     18  C         -1.7840  -35.0670   17.8840 C.2   101  LYS101      0.2287
     19  O         -1.7340  -35.4450   19.0710 O.2   101  LYS101     -0.2864
     20  CB         0.0450  -35.9250   16.3910 C.3   101  LYS101      0.0298
     21  CG         1.4940  -35.8050   15.8950 C.3   101  LYS101      0.0038
     22  CD         2.0850  -37.1720   15.4840 C.3   101  LYS101      0.0206
     23  CE         3.6360  -37.1470   15.3460 C.3   101  LYS101      0.1093
     24  NZ         4.3610  -36.8790   16.6380 N.3   101  LYS101     -0.1314
     25  N         -4.9980  -37.0310   19.2120 N.3   103  LYS103     -0.1245
     26  CA        -5.2630  -38.3760   19.6480 C.3   103  LYS103      0.1561
     27  C         -6.8010  -38.5220   19.8560 C.2   103  LYS103      0.2260
     28  O         -7.4460  -37.5480   20.2480 O.2   103  LYS103     -0.2867
     29  CB        -4.5200  -38.5910   20.9730 C.3   103  LYS103      0.0271
     30  CG        -3.0120  -38.7140   20.7990 C.3   103  LYS103      0.0035
     31  CD        -2.7210  -39.6050   19.6120 C.3   103  LYS103      0.0206
     32  CE        -1.3000  -39.5330   19.1550 C.3   103  LYS103      0.1093
     33  NZ        -1.2500  -40.0660   17.7750 N.3   103  LYS103     -0.1314
     34  N         -7.1420  -39.2790   25.5310 N.3   106  VAL106     -0.1245
     35  CA        -5.9840  -39.0730   26.3650 C.3   106  VAL106      0.1561
     36  C         -6.4380  -39.3270   27.7590 C.2   106  VAL106      0.2260
     37  O         -7.4550  -38.8350   28.1910 O.2   106  VAL106     -0.2867
     38  CB        -5.4800  -37.6100   26.2660 C.3   106  VAL106      0.0252
     39  CG1       -4.2950  -37.4050   27.1910 C.3   106  VAL106      0.0019
     40  CG2       -5.0990  -37.2870   24.8130 C.3   106  VAL106      0.0019
     41  N          0.7310  -43.8920   23.2270 N.3   179  VAL179     -0.1245
     42  CA         1.6910  -42.8410   23.5920 C.3   179  VAL179      0.1561
     43  C          1.6660  -42.5310   25.0820 C.2   179  VAL179      0.2260
     44  O          0.6010  -42.3530   25.6900 O.2   179  VAL179     -0.2867
     45  CB         1.3620  -41.5460   22.8470 C.3   179  VAL179      0.0252
     46  CG1        2.3120  -40.4310   23.2720 C.3   179  VAL179      0.0019
     47  CG2        1.3740  -41.7920   21.3230 C.3   179  VAL179      0.0019
     48  N          3.6460  -40.1750   28.1880 N.3   181  TYR181     -0.1241
     49  CA         4.4850  -39.0390   28.4300 C.3   181  TYR181      0.1605
     50  C          4.3170  -38.8310   29.8970 C.2   181  TYR181      0.2264
     51  O          3.1950  -38.7490   30.4470 O.2   181  TYR181     -0.2867
     52  CB         4.0220  -37.8230   27.6430 C.3   181  TYR181      0.0534
     53  CG         4.5190  -36.5000   28.2130 C.ar  181  TYR181     -0.0201
     54  CD1        5.8350  -36.0930   28.0370 C.ar  181  TYR181     -0.0009
     55  CD2        3.6650  -35.6740   28.9720 C.ar  181  TYR181     -0.0009
     56  CE1        6.2960  -34.9080   28.6050 C.ar  181  TYR181      0.0417
     57  CE2        4.1150  -34.4890   29.5360 C.ar  181  TYR181      0.0417
     58  CZ         5.4320  -34.1190   29.3540 C.ar  181  TYR181      0.1957
     59  OH         5.9040  -32.9990   29.9740 O.3   181  TYR181     -0.2866
     60  N          0.6740  -39.4720   31.2360 N.3   188  TYR188     -0.1241
     61  CA        -0.3420  -39.0750   30.2530 C.3   188  TYR188      0.1605
     62  C         -0.3520  -40.0630   29.1020 C.2   188  TYR188      0.2264
     63  O          0.5530  -40.0840   28.2690 O.2   188  TYR188     -0.2867
     64  CB        -0.0940  -37.6790   29.6460 C.3   188  TYR188      0.0534
     65  CG        -0.2980  -36.5370   30.6090 C.ar  188  TYR188     -0.0201
     66  CD1        0.7040  -36.1590   31.4950 C.ar  188  TYR188     -0.0009
     67  CD2       -1.5450  -35.9220   30.7140 C.ar  188  TYR188     -0.0009
     68  CE1        0.4640  -35.2140   32.4680 C.ar  188  TYR188      0.0417
     69  CE2       -1.8000  -34.9730   31.6710 C.ar  188  TYR188      0.0417
     70  CZ        -0.8040  -34.6300   32.5530 C.ar  188  TYR188      0.1957
     71  OH        -1.1060  -33.7420   33.5510 O.3   188  TYR188     -0.2866
     72  N         -2.0990  -41.5750   25.5980 N.3   190  GLY190     -0.1225
     73  CA        -3.0360  -41.2500   24.5560 C.3   190  GLY190      0.1811
     74  C         -2.9920  -42.1800   23.3770 C.2   190  GLY190      0.2280
     75  O         -2.0160  -42.8750   23.2400 O.2   190  GLY190     -0.2866
     76  N         -7.0210  -30.6680   29.5270 N.3   227  PHE227     -0.1241
     77  CA        -6.0180  -30.7280   30.5580 C.3   227  PHE227      0.1605
     78  C         -5.3350  -29.4190   30.6710 C.2   227  PHE227      0.2264
     79  O         -5.0430  -28.7740   29.6590 O.2   227  PHE227     -0.2867
     80  CB        -5.0580  -31.8560   30.3010 C.3   227  PHE227      0.0534
     81  CG        -5.6010  -33.1800   30.6930 C.ar  227  PHE227     -0.0203
     82  CD1       -5.8420  -33.4630   32.0320 C.ar  227  PHE227     -0.0042
     83  CD2       -5.8630  -34.1490   29.7400 C.ar  227  PHE227     -0.0042
     84  CE1       -6.3300  -34.7050   32.4110 C.ar  227  PHE227     -0.0003
     85  CE2       -6.3500  -35.3910   30.1100 C.ar  227  PHE227     -0.0003
     86  CZ        -6.5830  -35.6780   31.4400 C.ar  227  PHE227     -0.0000
     87  N         -2.4050  -27.6500   31.0920 N.3   229  TRP229     -0.1241
     88  CA        -0.9990  -27.9080   31.0640 C.3   229  TRP229      0.1605
     89  C         -0.2670  -26.6330   30.8260 C.2   229  TRP229      0.2264
     90  O         -0.1260  -26.1450   29.6750 O.2   229  TRP229     -0.2867
     91  CB        -0.6760  -28.9340   30.0080 C.3   229  TRP229      0.0550
     92  CG         0.7070  -29.4680   30.1240 C.ar  229  TRP229      0.0003
     93  CD1        1.2270  -30.2760   31.1220 C.ar  229  TRP229      0.0946
     94  CD2        1.7040  -29.3640   29.1270 C.ar  229  TRP229      0.0152
     95  NE1        2.4850  -30.7090   30.7640 N.ar  229  TRP229     -0.2442
     96  CE2        2.8010  -30.1700   29.5420 C.ar  229  TRP229      0.0810
     97  CE3        1.7750  -28.6770   27.9040 C.ar  229  TRP229      0.0012
     98  CZ2        3.9230  -30.3110   28.7860 C.ar  229  TRP229      0.0191
     99  CZ3        2.8900  -28.8150   27.1520 C.ar  229  TRP229      0.0001
    100  CH2        3.9600  -29.6320   27.5870 C.ar  229  TRP229      0.0015
    101  N         -5.7250  -28.1270   27.1650 N.3   234  LEU234     -0.1231
    102  CA        -5.5190  -29.1670   26.1610 C.3   234  LEU234      0.1693
    103  C         -6.6240  -30.2190   25.9630 C.2   234  LEU234      0.2592
    104  O         -6.9840  -30.9280   26.9120 O.2   234  LEU234     -0.2718
    105  CB        -4.1770  -29.8650   26.4380 C.3   234  LEU234      0.0284
    106  CG        -2.8820  -29.5050   25.6740 C.3   234  LEU234      0.0019
    107  CD1       -2.9670  -28.1870   24.9390 C.3   234  LEU234      0.0001
    108  CD2       -1.6950  -29.5100   26.6060 C.3   234  LEU234      0.0001
    109  N         -7.1510  -30.3040   24.7420 N.am  235  HIS235     -0.1962
    110  CA        -8.1810  -31.2930   24.4040 C.3   235  HIS235      0.1772
    111  C         -7.4590  -32.2560   23.4510 C.2   235  HIS235      0.2462
    112  O         -6.5290  -31.8220   22.7370 O.2   235  HIS235     -0.2730
    113  CB        -9.3630  -30.6820   23.6020 C.3   235  HIS235      0.0785
    114  CG       -10.1120  -29.5920   24.3130 C.ar  235  HIS235      0.0821
    115  ND1      -10.8090  -28.6140   23.6380 N.ar  235  HIS235     -0.2267
    116  CD2      -10.2320  -29.2960   25.6300 C.ar  235  HIS235      0.1154
    117  CE1      -11.3170  -27.7560   24.5060 C.ar  235  HIS235      0.1986
    118  NE2      -10.9810  -28.1440   25.7250 N.ar  235  HIS235     -0.2212
    119  N         -7.9040  -33.5280   23.3360 N.am  236  PRO236     -0.2727
    120  CA        -7.2290  -34.4790   22.4380 C.3   236  PRO236      0.1402
    121  C         -7.2010  -34.0600   20.9710 C.2   236  PRO236      0.2269
    122  O         -6.2550  -34.4170   20.2580 O.2   236  PRO236     -0.2865
    123  CB        -8.0390  -35.7620   22.6170 C.3   236  PRO236      0.0296
    124  CG        -8.4430  -35.6950   24.0370 C.3   236  PRO236      0.0237
    125  CD        -8.8830  -34.2450   24.1820 C.3   236  PRO236      0.0939
    126  N         -3.3700  -29.0750   16.3540 N.3   317  TYR317     -0.1241
    127  CA        -2.1710  -29.8750   16.6060 C.3   317  TYR317      0.1605
    128  C         -1.4270  -30.1730   15.2850 C.2   317  TYR317      0.2264
    129  O         -1.9480  -29.9110   14.1720 O.2   317  TYR317     -0.2867
    130  CB        -2.5390  -31.1700   17.3110 C.3   317  TYR317      0.0534
    131  CG        -3.0060  -30.9700   18.7150 C.ar  317  TYR317     -0.0201
    132  CD1       -2.1790  -30.4020   19.6480 C.ar  317  TYR317     -0.0009
    133  CD2       -4.2580  -31.4020   19.1270 C.ar  317  TYR317     -0.0009
    134  CE1       -2.5830  -30.2740   20.9900 C.ar  317  TYR317      0.0417
    135  CE2       -4.6700  -31.2820   20.4720 C.ar  317  TYR317      0.0417
    136  CZ        -3.8280  -30.7250   21.3900 C.ar  317  TYR317      0.1957
    137  OH        -4.1800  -30.6600   22.7310 O.3   317  TYR317     -0.2866
@<TRIPOS>BOND
     1   129   128    2
     2   128   127    1
     3    23    22    1
     4    23    24    1
     5    22    21    1
     6    21    20    1
     7   126   127    1
     8    20    17    1
     9   127   130    1
    10    17    18    1
    11    17    16    1
    12   130   131    1
    13    11    10    2
    14    33    32    1
    15    18    19    2
    16    16    10   am
    17    10     9    1
    18   131   133   ar
    19   131   132   ar
    20   133   135   ar
    21    32    31    1
    22    25    26    1
    23     8     9    1
    24    31    30    1
    25   132   134   ar
    26    26    27    1
    27    26    29    1
    28     9    12    1
    29    27    28    2
    30   122   121    2
    31   135   136   ar
    32    30    29    1
    33    12    13    1
    34   121   120    1
    35   134   136   ar
    36    47    45    1
    37   136   137    1
    38    13    15    1
    39    13    14    1
    40   120   123    1
    41   120   119    1
    42   123   124    1
    43   112   111    2
    44    45    46    1
    45    45    42    1
    46    41    42    1
    47    75    74    2
    48   119   111   am
    49   119   125    1
    50    74    73    1
    51   111   110    1
    52    42    43    1
    53   113   114    1
    54   113   110    1
    55   115   114   ar
    56   115   117   ar
    57   124   125    1
    58   114   116   ar
    59   110   109    1
    60   117   118   ar
    61    73    72    1
    62   109   103   am
    63     3     2    1
    64     3     4    2
    65    40    38    1
    66   107   106    1
    67     2     5    1
    68     2     1    1
    69    43    44    2
    70     5     6    1
    71    34    35    1
    72   116   118   ar
    73   106   105    1
    74   106   108    1
    75   103   102    1
    76   103   104    2
    77   102   105    1
    78   102   101    1
    79    38    35    1
    80    38    39    1
    81    35    36    1
    82     1     7    1
    83     6     7    1
    84    99   100   ar
    85    99    97   ar
    86   100    98   ar
    87    52    53    1
    88    52    49    1
    89    36    37    2
    90    97    94   ar
    91    54    53   ar
    92    54    56   ar
    93    48    49    1
    94    53    55   ar
    95    63    62    2
    96    49    50    1
    97    56    58   ar
    98    98    96   ar
    99    55    57   ar
   100    62    61    1
   101    94    96   ar
   102    94    92   ar
   103    58    57   ar
   104    58    59    1
   105    76    77    1
   106    96    95   ar
   107    64    61    1
   108    64    65    1
   109    79    78    2
   110    90    89    2
   111    83    85   ar
   112    83    81   ar
   113    50    51    2
   114    91    92    1
   115    91    88    1
   116    85    86   ar
   117    92    93   ar
   118    61    60    1
   119    80    77    1
   120    80    81    1
   121    77    78    1
   122    65    67   ar
   123    65    66   ar
   124    81    82   ar
   125    67    69   ar
   126    95    93   ar
   127    89    88    1
   128    88    87    1
   129    86    84   ar
   130    66    68   ar
   131    69    70   ar
   132    82    84   ar
   133    68    70   ar
   134    70    71    1
