@<TRIPOS>MOLECULE
tmp/1rtiA00.pdb
 178 177 0 0 0
SMALL
GASTEIGER

@<TRIPOS>ATOM
      1  N          6.7340  -30.1160   26.5680 N.3    95  PRO95      -0.2116
      2  CA         6.1350  -30.2230   25.2360 C.3    95  PRO95       0.1372
      3  C          5.1370  -29.1050   24.9640 C.2    95  PRO95       0.2244
      4  O          4.1220  -28.9910   25.6500 O.2    95  PRO95      -0.2868
      5  CB         5.4260  -31.5780   25.2940 C.3    95  PRO95       0.0268
      6  CG         6.2350  -32.3510   26.2840 C.3    95  PRO95       0.0207
      7  CD         6.4580  -31.3280   27.3580 C.3    95  PRO95       0.0892
      8  N          2.1650  -31.3830   19.7420 N.3   100  LEU100     -0.1231
      9  CA         1.4800  -32.6450   20.0000 C.3   100  LEU100      0.1693
     10  C          0.7840  -33.1170   18.7440 C.2   100  LEU100      0.2592
     11  O          0.2970  -32.3110   17.9490 O.2   100  LEU100     -0.2718
     12  CB         0.4200  -32.4820   21.0820 C.3   100  LEU100      0.0284
     13  CG         0.8700  -32.0440   22.4670 C.3   100  LEU100      0.0019
     14  CD1       -0.3480  -31.8390   23.3400 C.3   100  LEU100      0.0001
     15  CD2        1.7980  -33.0780   23.0630 C.3   100  LEU100      0.0001
     16  N          0.7130  -34.4300   18.5850 N.am  101  LYS101     -0.1966
     17  CA         0.0570  -35.0270   17.4370 C.3   101  LYS101      0.1728
     18  C         -1.3690  -35.3240   17.8740 C.2   101  LYS101      0.2616
     19  O         -1.6070  -35.6720   19.0340 O.2   101  LYS101     -0.2715
     20  CB         0.7810  -36.3120   17.0370 C.3   101  LYS101      0.0311
     21  CG         2.2600  -36.0990   16.7420 C.3   101  LYS101      0.0038
     22  CD         3.0180  -37.4110   16.6250 C.3   101  LYS101      0.0206
     23  CE         4.4980  -37.1650   16.3570 C.3   101  LYS101      0.1093
     24  NZ         5.2770  -38.4310   16.2870 N.3   101  LYS101     -0.1314
     25  N         -2.3200  -35.1270   16.9710 N.am  102  LYS102     -0.1963
     26  CA        -3.7200  -35.3820   17.2830 C.3   102  LYS102      0.1728
     27  C         -3.9720  -36.8810   17.4520 C.2   102  LYS102      0.2616
     28  O         -3.6540  -37.6780   16.5670 O.2   102  LYS102     -0.2715
     29  CB        -4.6310  -34.7850   16.2020 C.3   102  LYS102      0.0311
     30  CG        -4.3080  -35.2120   14.7740 C.3   102  LYS102      0.0038
     31  CD        -5.1040  -34.3900   13.7670 C.3   102  LYS102      0.0206
     32  CE        -4.9270  -34.9020   12.3420 C.3   102  LYS102      0.1093
     33  NZ        -5.5970  -36.2160   12.1150 N.3   102  LYS102     -0.1314
     34  N         -4.4890  -37.2570   18.6180 N.am  103  LYS103     -0.1977
     35  CA        -4.7840  -38.6530   18.9340 C.3   103  LYS103      0.1596
     36  C         -6.2930  -38.7790   19.1370 C.2   103  LYS103      0.2287
     37  O         -6.9170  -37.8720   19.6900 O.2   103  LYS103     -0.2864
     38  CB        -4.0550  -39.0670   20.2180 C.3   103  LYS103      0.0298
     39  CG        -2.5370  -38.8670   20.2170 C.3   103  LYS103      0.0038
     40  CD        -1.7690  -39.9870   19.5110 C.3   103  LYS103      0.0206
     41  CE        -1.6940  -39.7970   18.0030 C.3   103  LYS103      0.1093
     42  NZ        -0.7950  -40.8000   17.3600 N.3   103  LYS103     -0.1314
     43  N         -7.8900  -40.4740   21.2300 N.3   105  SER105     -0.1202
     44  CA        -8.2380  -40.5150   22.6430 C.3   105  SER105      0.2020
     45  C         -7.0030  -40.4680   23.5330 C.2   105  SER105      0.2618
     46  O         -5.9930  -41.1110   23.2410 O.2   105  SER105     -0.2717
     47  CB        -9.0750  -41.7620   22.9470 C.3   105  SER105      0.2103
     48  OG        -8.5250  -42.9140   22.3270 O.3   105  SER105     -0.2182
     49  N         -7.0950  -39.7150   24.6230 N.am  106  VAL106     -0.1979
     50  CA        -5.9970  -39.5710   25.5710 C.3   106  VAL106      0.1595
     51  C         -6.4780  -39.9580   26.9620 C.2   106  VAL106      0.2287
     52  O         -7.6710  -39.8980   27.2510 O.2   106  VAL106     -0.2864
     53  CB        -5.4750  -38.1190   25.6000 C.3   106  VAL106      0.0276
     54  CG1       -4.3290  -37.9780   26.5940 C.3   106  VAL106      0.0022
     55  CG2       -5.0220  -37.7050   24.2110 C.3   106  VAL106      0.0022
     56  N          1.4620  -43.6810   22.2250 N.3   179  VAL179     -0.1245
     57  CA         2.4210  -42.6450   22.5920 C.3   179  VAL179      0.1561
     58  C          2.1950  -42.2230   24.0470 C.2   179  VAL179      0.2260
     59  O          1.0560  -42.0460   24.4900 O.2   179  VAL179     -0.2867
     60  CB         2.3300  -41.4190   21.6450 C.3   179  VAL179      0.0252
     61  CG1        0.9780  -40.7400   21.7630 C.3   179  VAL179      0.0019
     62  CG2        3.4560  -40.4410   21.9370 C.3   179  VAL179      0.0019
     63  N          3.6510  -39.6380   27.3170 N.3   181  TYR181     -0.1241
     64  CA         4.4100  -38.4680   27.7200 C.3   181  TYR181      0.1605
     65  C          4.5080  -38.5280   29.2360 C.2   181  TYR181      0.2264
     66  O          3.5280  -38.8380   29.9180 O.2   181  TYR181     -0.2867
     67  CB         3.7000  -37.1780   27.2910 C.3   181  TYR181      0.0534
     68  CG         3.8920  -36.7880   25.8350 C.ar  181  TYR181     -0.0201
     69  CD1        3.7830  -37.7300   24.8100 C.ar  181  TYR181     -0.0009
     70  CD2        4.1650  -35.4660   25.4810 C.ar  181  TYR181     -0.0009
     71  CE1        3.9390  -37.3650   23.4680 C.ar  181  TYR181      0.0417
     72  CE2        4.3220  -35.0900   24.1420 C.ar  181  TYR181      0.0417
     73  CZ         4.2070  -36.0440   23.1410 C.ar  181  TYR181      0.1957
     74  OH         4.3580  -35.6740   21.8190 O.3   181  TYR181     -0.2866
     75  N          5.4060  -36.5320   32.7760 N.3   183  TYR183     -0.1241
     76  CA         5.5320  -35.2180   33.3780 C.3   183  TYR183      0.1605
     77  C          5.3260  -35.3530   34.8720 C.2   183  TYR183      0.2264
     78  O          4.2020  -35.2670   35.3690 O.2   183  TYR183     -0.2867
     79  CB         4.5170  -34.2370   32.7930 C.3   183  TYR183      0.0534
     80  CG         4.8000  -32.8100   33.2000 C.ar  183  TYR183     -0.0201
     81  CD1        5.6630  -32.0140   32.4480 C.ar  183  TYR183     -0.0009
     82  CD2        4.2540  -32.2710   34.3670 C.ar  183  TYR183     -0.0009
     83  CE1        5.9810  -30.7180   32.8490 C.ar  183  TYR183      0.0417
     84  CE2        4.5670  -30.9740   34.7770 C.ar  183  TYR183      0.0417
     85  CZ         5.4320  -30.2050   34.0140 C.ar  183  TYR183      0.1957
     86  OH         5.7630  -28.9320   34.4210 O.3   183  TYR183     -0.2866
     87  N          0.7580  -39.1580   30.5200 N.3   188  TYR188     -0.1227
     88  CA        -0.2570  -38.9930   29.4920 C.3   188  TYR188      0.1736
     89  C         -0.1200  -40.0370   28.4050 C.2   188  TYR188      0.2595
     90  O          0.9390  -40.1840   27.7990 O.2   188  TYR188     -0.2718
     91  CB        -0.2020  -37.5840   28.9080 C.3   188  TYR188      0.0548
     92  CG        -0.5570  -36.5140   29.9170 C.ar  188  TYR188     -0.0200
     93  CD1        0.4250  -35.9340   30.7210 C.ar  188  TYR188     -0.0009
     94  CD2       -1.8760  -36.0880   30.0780 C.ar  188  TYR188     -0.0009
     95  CE1        0.1030  -34.9570   31.6600 C.ar  188  TYR188      0.0417
     96  CE2       -2.2080  -35.1090   31.0130 C.ar  188  TYR188      0.0417
     97  CZ        -1.2140  -34.5490   31.8010 C.ar  188  TYR188      0.1957
     98  OH        -1.5330  -33.5900   32.7350 O.3   188  TYR188     -0.2866
     99  N         -1.1910  -40.7880   28.1930 N.am  189  VAL189     -0.1966
    100  CA        -1.2120  -41.8410   27.1930 C.3   189  VAL189      0.1727
    101  C         -2.2740  -41.5350   26.1400 C.2   189  VAL189      0.2616
    102  O         -3.4420  -41.3140   26.4710 O.2   189  VAL189     -0.2715
    103  CB        -1.5070  -43.2060   27.8460 C.3   189  VAL189      0.0290
    104  CG1       -1.4550  -44.3060   26.8110 C.3   189  VAL189      0.0023
    105  CG2       -0.5110  -43.4820   28.9560 C.3   189  VAL189      0.0023
    106  N         -1.8690  -41.5410   24.8750 N.am  190  GLY190     -0.1955
    107  CA        -2.7980  -41.2520   23.7970 C.3   190  GLY190      0.1869
    108  C         -2.6000  -42.1600   22.5970 C.2   190  GLY190      0.2309
    109  O         -1.5020  -42.6780   22.3830 O.2   190  GLY190     -0.2863
    110  N        -10.3780  -34.7560   29.5630 N.3   225  PRO225     -0.2116
    111  CA       -10.1920  -33.6470   28.6250 C.3   225  PRO225      0.1372
    112  C        -11.4330  -32.7630   28.7320 C.2   225  PRO225      0.2244
    113  O        -12.5430  -33.2730   28.9070 O.2   225  PRO225     -0.2868
    114  CB       -10.1410  -34.3550   27.2750 C.3   225  PRO225      0.0268
    115  CG        -9.5280  -35.6710   27.6130 C.3   225  PRO225      0.0207
    116  CD       -10.2690  -36.0510   28.8690 C.3   225  PRO225      0.0892
    117  N         -7.7810  -30.9760   29.2990 N.3   227  PHE227     -0.1241
    118  CA        -6.7400  -31.0420   30.3200 C.3   227  PHE227      0.1605
    119  C         -6.1740  -29.6540   30.5870 C.2   227  PHE227      0.2264
    120  O         -5.6270  -29.0210   29.6820 O.2   227  PHE227     -0.2867
    121  CB        -5.6020  -31.9630   29.8660 C.3   227  PHE227      0.0534
    122  CG        -5.9820  -33.4120   29.7890 C.ar  227  PHE227     -0.0203
    123  CD1       -6.5070  -34.0680   30.8970 C.ar  227  PHE227     -0.0042
    124  CD2       -5.7900  -34.1290   28.6140 C.ar  227  PHE227     -0.0042
    125  CE1       -6.8350  -35.4180   30.8370 C.ar  227  PHE227     -0.0003
    126  CE2       -6.1140  -35.4810   28.5420 C.ar  227  PHE227     -0.0003
    127  CZ        -6.6370  -36.1280   29.6560 C.ar  227  PHE227     -0.0000
    128  N         -3.4930  -27.9210   31.4510 N.3   229  TRP229     -0.1241
    129  CA        -2.0760  -28.1310   31.6310 C.3   229  TRP229      0.1605
    130  C         -1.2790  -26.8510   31.4890 C.2   229  TRP229      0.2264
    131  O         -1.1700  -26.2850   30.4010 O.2   229  TRP229     -0.2867
    132  CB        -1.5670  -29.1850   30.6560 C.3   229  TRP229      0.0550
    133  CG        -0.1210  -29.4770   30.8230 C.ar  229  TRP229      0.0003
    134  CD1        0.4750  -30.0830   31.8910 C.ar  229  TRP229      0.0946
    135  CD2        0.9230  -29.1700   29.8960 C.ar  229  TRP229      0.0152
    136  NE1        1.8300  -30.1750   31.6840 N.ar  229  TRP229     -0.2442
    137  CE2        2.1320  -29.6220   30.4670 C.ar  229  TRP229      0.0810
    138  CE3        0.9550  -28.5590   28.6350 C.ar  229  TRP229      0.0012
    139  CZ2        3.3620  -29.4830   29.8200 C.ar  229  TRP229      0.0191
    140  CZ3        2.1760  -28.4210   27.9930 C.ar  229  TRP229      0.0001
    141  CH2        3.3640  -28.8820   28.5870 C.ar  229  TRP229      0.0015
    142  N         -6.0990  -28.1540   26.8980 N.3   234  LEU234     -0.1231
    143  CA        -6.0830  -29.1390   25.8180 C.3   234  LEU234      0.1693
    144  C         -7.4270  -29.7990   25.5060 C.2   234  LEU234      0.2592
    145  O         -8.0380  -30.4200   26.3740 O.2   234  LEU234     -0.2718
    146  CB        -5.0460  -30.2310   26.1140 C.3   234  LEU234      0.0284
    147  CG        -3.5620  -29.8660   26.2470 C.3   234  LEU234      0.0019
    148  CD1       -3.1020  -29.0810   25.0280 C.3   234  LEU234      0.0001
    149  CD2       -3.3120  -29.0730   27.5180 C.3   234  LEU234      0.0001
    150  N         -7.8860  -29.6470   24.2670 N.am  235  HIS235     -0.1962
    151  CA        -9.1410  -30.2510   23.8160 C.3   235  HIS235      0.1772
    152  C         -8.7640  -31.3060   22.7720 C.2   235  HIS235      0.2462
    153  O         -7.6730  -31.2560   22.2080 O.2   235  HIS235     -0.2730
    154  CB       -10.0600  -29.2010   23.1790 C.3   235  HIS235      0.0785
    155  CG       -10.5080  -28.1260   24.1210 C.ar  235  HIS235      0.0821
    156  ND1       -9.6270  -27.3010   24.7860 N.ar  235  HIS235     -0.2267
    157  CD2      -11.7490  -27.7220   24.4850 C.ar  235  HIS235      0.1154
    158  CE1      -10.3040  -26.4350   25.5180 C.ar  235  HIS235      0.1986
    159  NE2      -11.5930  -26.6700   25.3540 N.ar  235  HIS235     -0.2212
    160  N         -9.6780  -32.2410   22.4610 N.am  236  PRO236     -0.2727
    161  CA        -9.3980  -33.2930   21.4750 C.3   236  PRO236      0.1402
    162  C         -9.0350  -32.8320   20.0610 C.2   236  PRO236      0.2269
    163  O         -8.3350  -33.5420   19.3400 O.2   236  PRO236     -0.2865
    164  CB       -10.6880  -34.1140   21.4830 C.3   236  PRO236      0.0296
    165  CG       -11.7330  -33.1010   21.8410 C.3   236  PRO236      0.0237
    166  CD       -11.0570  -32.3590   22.9630 C.3   236  PRO236      0.0939
    167  N         -3.3470  -28.8040   16.6440 N.3   317  TYR317     -0.1241
    168  CA        -2.2600  -29.7690   16.8310 C.3   317  TYR317      0.1605
    169  C         -1.5090  -30.0910   15.5450 C.2   317  TYR317      0.2264
    170  O         -1.9600  -29.7590   14.4470 O.2   317  TYR317     -0.2867
    171  CB        -2.7840  -31.0640   17.4470 C.3   317  TYR317      0.0534
    172  CG        -3.3710  -30.8800   18.8200 C.ar  317  TYR317     -0.0201
    173  CD1       -2.5550  -30.6480   19.9220 C.ar  317  TYR317     -0.0009
    174  CD2       -4.7460  -30.9270   19.0160 C.ar  317  TYR317     -0.0009
    175  CE1       -3.0960  -30.4660   21.1870 C.ar  317  TYR317      0.0417
    176  CE2       -5.2970  -30.7480   20.2740 C.ar  317  TYR317      0.0417
    177  CZ        -4.4700  -30.5170   21.3550 C.ar  317  TYR317      0.1957
    178  OH        -5.0260  -30.3350   22.5980 O.3   317  TYR317     -0.2866
@<TRIPOS>BOND
     1    33    32    1
     2    32    31    1
     3    31    30    1
     4   170   169    2
     5    30    29    1
     6   169   168    1
     7    29    26    1
     8    24    23    1
     9    23    22    1
    10    28    27    2
    11    22    21    1
    12   167   168    1
    13    21    20    1
    14   168   171    1
    15    25    26    1
    16    25    18   am
    17    20    17    1
    18    26    27    1
    19    42    41    1
    20    17    18    1
    21    17    16    1
    22   171   172    1
    23    27    34   am
    24    18    19    2
    25    11    10    2
    26    41    40    1
    27    16    10   am
    28    34    35    1
    29    10     9    1
    30   172   174   ar
    31   172   173   ar
    32    35    36    1
    33    35    38    1
    34   174   176   ar
    35    36    37    2
    36   163   162    2
    37    40    39    1
    38     8     9    1
    39   173   175   ar
    40     9    12    1
    41   162   161    1
    42    39    38    1
    43   176   177   ar
    44    12    13    1
    45   175   177   ar
    46    43    44    1
    47   177   178    1
    48   161   164    1
    49   161   160    1
    50   164   165    1
    51    60    61    1
    52    60    62    1
    53    60    57    1
    54    74    73    1
    55   165   166    1
    56   153   152    2
    57    56    57    1
    58    48    47    1
    59   109   108    2
    60   160   152   am
    61   160   166    1
    62    13    15    1
    63    13    14    1
    64    57    58    1
    65   108   107    1
    66    44    47    1
    67    44    45    1
    68   152   151    1
    69    73    71   ar
    70    73    72   ar
    71   154   151    1
    72   154   155    1
    73    46    45    2
    74    71    69   ar
    75    45    49   am
    76   107   106    1
    77   151   150    1
    78    58    59    2
    79   155   157   ar
    80   155   156   ar
    81    72    70   ar
    82    55    53    1
    83   150   144   am
    84   157   159   ar
    85    49    50    1
    86   156   158   ar
    87    69    68   ar
    88   106   101   am
    89     3     2    1
    90     3     4    2
    91   148   147    1
    92     2     5    1
    93     2     1    1
    94     5     6    1
    95   159   158   ar
    96    70    68   ar
    97   144   143    1
    98   144   145    2
    99    50    53    1
   100    50    51    1
   101    53    54    1
   102   143   146    1
   103   143   142    1
   104    68    67    1
   105   146   147    1
   106   101   102    2
   107   101   100    1
   108   147   149    1
   109     6     7    1
   110     1     7    1
   111   104   103    1
   112    51    52    2
   113   100   103    1
   114   100    99    1
   115   114   115    1
   116   114   111    1
   117    67    64    1
   118    63    64    1
   119   115   116    1
   120    64    65    1
   121    90    89    2
   122   103   105    1
   123   140   141   ar
   124   140   138   ar
   125    99    89   am
   126    89    88    1
   127   126   124   ar
   128   126   127   ar
   129   141   139   ar
   130   124   122   ar
   131   111   112    1
   132   111   110    1
   133   138   135   ar
   134   112   113    2
   135   116   110    1
   136    91    88    1
   137    91    92    1
   138    65    66    2
   139   117   118    1
   140    88    87    1
   141   127   125   ar
   142   120   119    2
   143   122   121    1
   144   122   123   ar
   145   139   137   ar
   146   121   118    1
   147   135   137   ar
   148   135   133   ar
   149    92    94   ar
   150    92    93   ar
   151    94    96   ar
   152   118   119    1
   153   131   130    2
   154   137   136   ar
   155   132   133    1
   156   132   129    1
   157    93    95   ar
   158   133   134   ar
   159   125   123   ar
   160    96    97   ar
   161   128   129    1
   162   130   129    1
   163    95    97   ar
   164   136   134   ar
   165    97    98    1
   166    81    83   ar
   167    81    80   ar
   168    75    76    1
   169    79    80    1
   170    79    76    1
   171    83    85   ar
   172    80    82   ar
   173    76    77    1
   174    85    86    1
   175    85    84   ar
   176    82    84   ar
   177    77    78    2
