@<TRIPOS>MOLECULE
tmp/1rtkA00.pdb
 118 115 0 0 0
SMALL
GASTEIGER

@<TRIPOS>ATOM
      1  N         57.6070   16.0500  -10.7190 N.3   234  GLU234     -0.1245
      2  CA        58.9020   16.6740  -10.4660 C.3   234  GLU234      0.1567
      3  C         58.7500   17.9730   -9.6710 C.2   234  GLU234      0.2260
      4  O         57.7250   18.6540   -9.7560 O.2   234  GLU234     -0.2867
      5  CB        59.6030   16.9670  -11.8010 C.3   234  GLU234      0.0388
      6  CG        60.9270   17.7060  -11.6720 C.3   234  GLU234      0.1160
      7  CD        62.1200   16.7680  -11.6980 C.2   234  GLU234      0.3649
      8  OE1       63.0020   16.8970  -10.8200 O.co2 234  GLU234     -0.2457
      9  OE2       62.1790   15.9040  -12.6050 O.co2 234  GLU234     -0.2457
     10  N         67.5420   19.8390  -16.6590 N.3   251  HIS251     -0.1241
     11  CA        67.0930   18.4740  -16.3790 C.3   251  HIS251      0.1621
     12  C         65.7890   18.3780  -15.6070 C.2   251  HIS251      0.2264
     13  O         65.2780   17.2790  -15.3920 O.2   251  HIS251     -0.2867
     14  CB        68.1800   17.6580  -15.6520 C.3   251  HIS251      0.0745
     15  CG        68.1960   17.8320  -14.1620 C.ar  251  HIS251      0.0817
     16  ND1       69.0430   18.7120  -13.5220 N.ar  251  HIS251     -0.2268
     17  CD2       67.4810   17.2230  -13.1850 C.ar  251  HIS251      0.1154
     18  CE1       68.8520   18.6370  -12.2180 C.ar  251  HIS251      0.1986
     19  NE2       67.9100   17.7410  -11.9840 N.ar  251  HIS251     -0.2212
     20  N         77.1030    7.5630   -8.8360 N.3   389  PRO389     -0.2116
     21  CA        76.3640    6.4530   -9.4450 C.3   389  PRO389      0.1372
     22  C         76.3800    6.4980  -10.9750 C.2   389  PRO389      0.2244
     23  O         76.0120    7.5030  -11.5770 O.2   389  PRO389     -0.2868
     24  CB        74.9590    6.6320   -8.8810 C.3   389  PRO389      0.0268
     25  CG        75.2290    7.1770   -7.5190 C.3   389  PRO389      0.0207
     26  CD        76.2990    8.2130   -7.7860 C.3   389  PRO389      0.0892
     27  N         73.2580   19.5500   -1.0650 N.3   419  THR419     -0.1203
     28  CA        72.0210   19.9020   -1.7400 C.3   419  THR419      0.1994
     29  C         71.1560   18.6580   -1.8490 C.2   419  THR419      0.2618
     30  O         71.6690   17.5450   -1.9880 O.2   419  THR419     -0.2717
     31  CB        72.2980   20.4300   -3.1570 C.3   419  THR419      0.1784
     32  OG1       73.0730   19.4670   -3.8810 O.3   419  THR419     -0.2211
     33  CG2       73.0620   21.7430   -3.0980 C.3   419  THR419      0.0376
     34  N         69.8450   18.8460   -1.7650 N.am  420  CYS420     -0.1955
     35  CA        68.9080   17.7410   -1.8880 C.3   420  CYS420      0.1843
     36  C         68.2710   17.8250   -3.2620 C.2   420  CYS420      0.2625
     37  O         68.3120   18.8670   -3.9080 O.2   420  CYS420     -0.2714
     38  CB        67.8400   17.8130   -0.8000 C.3   420  CYS420      0.0997
     39  SG        68.4640   17.5600    0.8950 S.3   420  CYS420     -0.0797
     40  N         67.6760   16.7330   -3.7140 N.am  421  ARG421     -0.1977
     41  CA        67.0630   16.7100   -5.0360 C.3   421  ARG421      0.1597
     42  C         66.1290   17.8830   -5.2620 C.2   421  ARG421      0.2287
     43  O         66.1490   18.4850   -6.3290 O.2   421  ARG421     -0.2864
     44  CB        66.3020   15.3980   -5.2330 C.3   421  ARG421      0.0334
     45  CG        65.9100   15.0990   -6.6620 C.3   421  ARG421      0.0492
     46  CD        65.2220   13.7410   -6.7160 C.3   421  ARG421      0.2205
     47  NE        64.8670   13.3250   -8.0750 N.pl3 421  ARG421     -0.0865
     48  CZ        64.1330   12.2560   -8.3760 C.cat 421  ARG421      0.5346
     49  NH1       63.6510   11.4670   -7.4170 N.pl3 421  ARG421      0.1354
     50  NH2       63.9000   11.9790   -9.6490 N.pl3 421  ARG421      0.1354
     51  N         67.5470   21.2630   -6.5750 N.3   424  SER424     -0.1217
     52  CA        68.0590   21.3620   -7.9330 C.3   424  SER424      0.1889
     53  C         67.3730   22.4490   -8.7470 C.2   424  SER424      0.2288
     54  O         66.1550   22.5730   -8.7220 O.2   424  SER424     -0.2866
     55  CB        67.9120   20.0240   -8.6280 C.3   424  SER424      0.2089
     56  OG        69.1240   19.3070   -8.5700 O.3   424  SER424     -0.2183
     57  N         72.1350   24.8970   -9.0500 N.3   442  ILE442     -0.1231
     58  CA        72.2420   23.5760   -8.4360 C.3   442  ILE442      0.1692
     59  C         71.8790   22.5180   -9.4840 C.2   442  ILE442      0.2593
     60  O         70.7870   22.5290  -10.0460 O.2   442  ILE442     -0.2718
     61  CB        71.3220   23.5090   -7.1850 C.3   442  ILE442      0.0266
     62  CG1       71.7760   24.5890   -6.1850 C.3   442  ILE442      0.0019
     63  CG2       71.3870   22.1350   -6.5330 C.3   442  ILE442      0.0020
     64  CD1       70.8440   24.8080   -5.0070 C.3   442  ILE442      0.0001
     65  N         72.8190   21.6200   -9.7570 N.am  443  SER443     -0.1938
     66  CA        72.6200   20.5980  -10.7800 C.3   443  SER443      0.2055
     67  C         72.5760   19.1490  -10.2890 C.2   443  SER443      0.2643
     68  O         71.5350   18.5090  -10.3530 O.2   443  SER443     -0.2714
     69  CB        73.7010   20.7420  -11.8570 C.3   443  SER443      0.2130
     70  OG        73.4590   19.8670  -12.9430 O.3   443  SER443     -0.2179
     71  N         73.6980   18.6350   -9.8000 N.am  444  TRP444     -0.1959
     72  CA        73.7590   17.2510   -9.3340 C.3   444  TRP444      0.1771
     73  C         74.7440   17.0420   -8.1900 C.2   444  TRP444      0.2620
     74  O         75.4080   17.9810   -7.7490 O.2   444  TRP444     -0.2715
     75  CB        74.1250   16.3140  -10.5000 C.3   444  TRP444      0.0590
     76  CG        75.4540   16.6290  -11.1810 C.ar  444  TRP444      0.0006
     77  CD1       75.7090   17.6440  -12.0650 C.ar  444  TRP444      0.0946
     78  CD2       76.6850   15.8920  -11.0580 C.ar  444  TRP444      0.0152
     79  NE1       77.0150   17.5790  -12.5040 N.ar  444  TRP444     -0.2442
     80  CE2       77.6350   16.5150  -11.9020 C.ar  444  TRP444      0.0810
     81  CE3       77.0740   14.7670  -10.3180 C.ar  444  TRP444      0.0012
     82  CZ2       78.9520   16.0440  -12.0290 C.ar  444  TRP444      0.0191
     83  CZ3       78.3880   14.2980  -10.4460 C.ar  444  TRP444      0.0001
     84  CH2       79.3070   14.9390  -11.2950 C.ar  444  TRP444      0.0015
     85  N         74.8410   15.8000   -7.7230 N.am  445  GLY445     -0.1940
     86  CA        75.7480   15.4800   -6.6310 C.3   445  GLY445      0.2014
     87  C         76.3220   14.0710   -6.6830 C.2   445  GLY445      0.2639
     88  O         75.8490   13.2280   -7.4420 O.2   445  GLY445     -0.2714
     89  N         77.3410   13.8150   -5.8680 N.am  446  VAL446     -0.1963
     90  CA        77.9850   12.5090   -5.8340 C.3   446  VAL446      0.1727
     91  C         77.3360   11.5420   -4.8420 C.2   446  VAL446      0.2616
     92  O         77.0270   10.4030   -5.1840 O.2   446  VAL446     -0.2715
     93  CB        79.4870   12.6370   -5.4760 C.3   446  VAL446      0.0290
     94  CG1       80.1590   11.2720   -5.5480 C.3   446  VAL446      0.0023
     95  CG2       80.1700   13.6080   -6.4200 C.3   446  VAL446      0.0023
     96  N         77.1270   11.9990   -3.6130 N.am  447  VAL447     -0.1963
     97  CA        76.5450   11.1540   -2.5780 C.3   447  VAL447      0.1727
     98  C         75.1330   11.5700   -2.1720 C.2   447  VAL447      0.2616
     99  O         74.8790   12.7360   -1.8680 O.2   447  VAL447     -0.2715
    100  CB        77.4390   11.1450   -1.3140 C.3   447  VAL447      0.0290
    101  CG1       76.8780   10.1800   -0.2800 C.3   447  VAL447      0.0023
    102  CG2       78.8620   10.7620   -1.6920 C.3   447  VAL447      0.0023
    103  N         74.2250   10.5990   -2.1720 N.am  448  ASP448     -0.1971
    104  CA        72.8290   10.8140   -1.8010 C.3   448  ASP448      0.1709
    105  C         72.7360   10.8660   -0.2840 C.2   448  ASP448      0.2293
    106  O         72.7190    9.8250    0.3730 O.2   448  ASP448     -0.2864
    107  CB        71.9700    9.6660   -2.3310 C.3   448  ASP448      0.1436
    108  CG        70.5110    9.7960   -1.9410 C.2   448  ASP448      0.3671
    109  OD1       69.7290    8.8690   -2.2480 O.co2 448  ASP448     -0.2456
    110  OD2       70.1450   10.8250   -1.3330 O.co2 448  ASP448     -0.2456
    111  N         79.0280   18.2780   -4.4950 N.3   462  ASP462     -0.1239
    112  CA        77.8920   18.7340   -5.2870 C.3   462  ASP462      0.1674
    113  C         78.3720   19.6410   -6.3940 C.2   462  ASP462      0.2266
    114  O         79.2740   20.4550   -6.1910 O.2   462  ASP462     -0.2867
    115  CB        76.8740   19.4850   -4.4300 C.3   462  ASP462      0.1410
    116  CG        76.2050   18.5970   -3.4150 C.2   462  ASP462      0.3668
    117  OD1       75.9130   17.4310   -3.7560 O.co2 462  ASP462     -0.2456
    118  OD2       75.9600   19.0650   -2.2820 O.co2 462  ASP462     -0.2456
@<TRIPOS>BOND
     1    10    11    1
     2    11    14    1
     3    11    12    1
     4    14    15    1
     5    12    13    2
     6    15    16   ar
     7    15    17   ar
     8    16    18   ar
     9    17    19   ar
    10    70    69    1
    11     9     7   ar
    12    79    77   ar
    13    79    80   ar
    14    18    19   ar
    15    77    76   ar
    16    82    80   ar
    17    82    84   ar
    18    80    78   ar
    19    69    66    1
    20     5     6    1
    21     5     2    1
    22     7     6    1
    23     7     8   ar
    24    23    22    2
    25    84    83   ar
    26    76    78   ar
    27    76    75    1
    28    78    81   ar
    29    22    21    1
    30    66    67    1
    31    66    65    1
    32     1     2    1
    33    75    72    1
    34     2     3    1
    35    83    81   ar
    36    68    67    2
    37    67    71   am
    38    60    59    2
    39    71    72    1
    40    65    59   am
    41     4     3    2
    42    50    48    1
    43    59    58    1
    44    21    24    1
    45    21    20    1
    46    72    73    1
    47    57    58    1
    48    24    25    1
    49    20    26    1
    50    53    54    2
    51    53    52    1
    52    55    56    1
    53    55    52    1
    54    58    61    1
    55    48    47    2
    56    48    49    1
    57    73    74    2
    58    73    85   am
    59    47    46    1
    60    52    51    1
    61    26    25    1
    62    85    86    1
    63    88    87    2
    64    61    63    1
    65    61    62    1
    66    46    45    1
    67    87    86    1
    68    87    89   am
    69    45    44    1
    70    95    93    1
    71   113   114    2
    72   113   112    1
    73    43    42    2
    74    62    64    1
    75    89    90    1
    76    90    93    1
    77    90    91    1
    78    94    93    1
    79   112   111    1
    80   112   115    1
    81    42    41    1
    82    44    41    1
    83    92    91    2
    84    41    40    1
    85    91    96   am
    86   115   116    1
    87    37    36    2
    88    32    31    1
    89   117   116   ar
    90    40    36   am
    91    96    97    1
    92   116   118   ar
    93    36    35    1
    94    31    33    1
    95    31    28    1
    96    97    98    1
    97    97   100    1
    98   107   108    1
    99   107   104    1
   100   109   108   ar
   101   103    98   am
   102   103   104    1
   103    98    99    2
   104    30    29    2
   105   108   110   ar
   106    35    34    1
   107    35    38    1
   108    29    34   am
   109    29    28    1
   110   104   105    1
   111    28    27    1
   112   102   100    1
   113   100   101    1
   114    38    39    1
   115   105   106    2
