@<TRIPOS>MOLECULE
tmp/1rtlA00.pdb
 147 141 0 0 0
SMALL
GASTEIGER

@<TRIPOS>ATOM
      1  N          3.0560   16.2500   15.0840 N.3    41  GLN41      -0.1231
      2  CA         4.2980   17.0540   14.9290 C.3    41  GLN41       0.1698
      3  C          5.5810   16.6820   15.6330 C.2    41  GLN41       0.2593
      4  O          5.5710   16.0510   16.6890 O.2    41  GLN41      -0.2718
      5  CB         4.0170   18.4750   15.3690 C.3    41  GLN41       0.0381
      6  CG         3.1090   19.2890   14.4760 C.3    41  GLN41       0.0905
      7  CD         2.7970   20.6250   15.1270 C.2    41  GLN41       0.2608
      8  OE1        2.5000   20.6820   16.3280 O.2    41  GLN41      -0.2717
      9  NE2        2.8890   21.7000   14.3580 N.am   41  GLN41      -0.0878
     10  N          6.6910   17.1390   15.0560 N.am   42  THR42      -0.1939
     11  CA         8.0070   16.8660   15.6280 C.3    42  THR42       0.2028
     12  C          8.7870   18.1130   15.8740 C.2    42  THR42       0.2642
     13  O          8.8700   18.9750   15.0310 O.2    42  THR42      -0.2714
     14  CB         8.8230   16.0550   14.6990 C.3    42  THR42       0.1808
     15  OG1        8.0860   14.8990   14.4120 O.3    42  THR42      -0.2208
     16  CG2       10.0490   15.5080   15.4100 C.3    42  THR42       0.0379
     17  N          9.4270   18.1830   17.0140 N.am   43  PHE43      -0.1973
     18  CA        10.2580   19.3200   17.2470 C.3    43  PHE43       0.1639
     19  C         11.3540   18.9310   18.2100 C.2    43  PHE43       0.2290
     20  O         11.5720   17.7250   18.4480 O.2    43  PHE43      -0.2864
     21  CB         9.4060   20.4990   17.7540 C.3    43  PHE43       0.0560
     22  CG         8.3160   20.1010   18.7190 C.ar   43  PHE43      -0.0200
     23  CD1        7.1330   19.4870   18.2660 C.ar   43  PHE43      -0.0042
     24  CD2        8.4830   20.3430   20.0880 C.ar   43  PHE43      -0.0042
     25  CE1        6.1430   19.1050   19.1850 C.ar   43  PHE43      -0.0003
     26  CE2        7.5140   19.9700   21.0170 C.ar   43  PHE43      -0.0003
     27  CZ         6.3500   19.3450   20.5770 C.ar   43  PHE43      -0.0000
     28  N          8.9490   24.5430   22.8110 N.3    55  VAL55      -0.1245
     29  CA         7.9740   25.5800   22.5110 C.3    55  VAL55       0.1561
     30  C          6.5500   25.1420   22.8190 C.2    55  VAL55       0.2260
     31  O          6.1580   23.9460   22.6470 O.2    55  VAL55      -0.2867
     32  CB         8.0830   26.0230   21.0800 C.3    55  VAL55       0.0252
     33  CG1        9.3700   26.7760   20.9050 C.3    55  VAL55       0.0019
     34  CG2        8.0670   24.8180   20.1840 C.3    55  VAL55       0.0019
     35  N          3.8680   26.2540   21.3590 N.3    57  HIS57      -0.1226
     36  CA         3.1090   26.0960   20.1400 C.3    57  HIS57       0.1752
     37  C          3.2630   24.6860   19.5720 C.2    57  HIS57       0.2596
     38  O          2.6200   24.3500   18.5850 O.2    57  HIS57      -0.2718
     39  CB         3.3760   27.2350   19.1350 C.3    57  HIS57       0.0759
     40  CG         4.5890   27.0560   18.2630 C.ar   57  HIS57       0.0818
     41  ND1        5.7990   27.6840   18.5200 N.ar   57  HIS57      -0.2268
     42  CD2        4.7630   26.3670   17.1030 C.ar   57  HIS57       0.1154
     43  CE1        6.6690   27.3690   17.5720 C.ar   57  HIS57       0.1986
     44  NE2        6.0640   26.5790   16.6960 N.ar   57  HIS57      -0.2212
     45  N          4.0930   23.8510   20.2000 N.am   58  GLY58      -0.1957
     46  CA         4.1890   22.4670   19.7840 C.3    58  GLY58       0.1869
     47  C          3.6990   21.4900   20.8200 C.2    58  GLY58       0.2309
     48  O          2.9550   20.5800   20.4890 O.2    58  GLY58      -0.2863
     49  N         16.1850   37.9760   17.9050 N.3   123  ARG123     -0.1245
     50  CA        16.3080   37.6880   16.4720 C.3   123  ARG123      0.1563
     51  C         17.7540   37.5510   16.0380 C.2   123  ARG123      0.2260
     52  O         18.6370   38.2000   16.5810 O.2   123  ARG123     -0.2867
     53  CB        15.5760   38.7090   15.5920 C.3   123  ARG123      0.0307
     54  CG        16.0710   38.7190   14.1050 C.3   123  ARG123      0.0489
     55  CD        15.0260   38.8480   12.9830 C.3   123  ARG123      0.2205
     56  NE        13.6490   38.5440   13.4140 N.pl3 123  ARG123     -0.0865
     57  CZ        12.5380   38.9440   12.7680 C.cat 123  ARG123      0.5346
     58  NH1       12.6350   39.6500   11.6340 N.pl3 123  ARG123      0.1354
     59  NH2       11.3290   38.6240   13.2470 N.pl3 123  ARG123      0.1354
     60  N         13.2940   26.4310    3.9770 N.3   132  ILE132     -0.1245
     61  CA        12.4040   26.1610    5.1050 C.3   132  ILE132      0.1561
     62  C         12.1970   24.6540    5.4220 C.2   132  ILE132      0.2260
     63  O         12.0680   24.2690    6.5660 O.2   132  ILE132     -0.2867
     64  CB        11.0350   26.9650    4.9850 C.3   132  ILE132      0.0252
     65  CG1       10.2310   26.8990    6.2930 C.3   132  ILE132      0.0019
     66  CG2       10.1300   26.4700    3.8400 C.3   132  ILE132      0.0019
     67  CD1       11.0460   26.9910    7.6270 C.3   132  ILE132      0.0001
     68  N         14.7350   23.3960    7.9600 N.3   135  LEU135     -0.1231
     69  CA        14.5630   23.7380    9.3570 C.3   135  LEU135      0.1693
     70  C         13.3380   23.0740    9.9920 C.2   135  LEU135      0.2592
     71  O         13.1210   23.1260   11.2010 O.2   135  LEU135     -0.2718
     72  CB        14.5780   25.2640    9.5080 C.3   135  LEU135      0.0284
     73  CG        15.9690   25.9070    9.3330 C.3   135  LEU135      0.0019
     74  CD1       15.9360   27.3880    9.4920 C.3   135  LEU135      0.0001
     75  CD2       16.9800   25.3850   10.3110 C.3   135  LEU135      0.0001
     76  N         12.5390   22.4210    9.1690 N.am  136  LYS136     -0.1966
     77  CA        11.3290   21.7350    9.6370 C.3   136  LYS136      0.1728
     78  C         11.7020   20.7740   10.7750 C.2   136  LYS136      0.2616
     79  O         12.7250   20.1240   10.7170 O.2   136  LYS136     -0.2715
     80  CB        10.7170   20.9870    8.4370 C.3   136  LYS136      0.0311
     81  CG         9.2620   20.4230    8.5090 C.3   136  LYS136      0.0038
     82  CD         8.7830   20.0670    7.0260 C.3   136  LYS136      0.0206
     83  CE         7.2890   19.6300    6.8870 C.3   136  LYS136      0.1093
     84  NZ         6.9100   18.5440    7.8330 N.3   136  LYS136     -0.1314
     85  N         10.9040   20.7100   11.8320 N.am  137  GLY137     -0.1955
     86  CA        11.2420   19.8390   12.9590 C.3   137  GLY137      0.1869
     87  C         12.3480   20.3350   13.9130 C.2   137  GLY137      0.2309
     88  O         12.6380   19.6770   14.9300 O.2   137  GLY137     -0.2863
     89  N         12.3700   23.5880   15.5510 N.3   139  SER139     -0.1217
     90  CA        11.8820   24.4810   16.6110 C.3   139  SER139      0.1889
     91  C         12.1030   23.9070   18.0100 C.2   139  SER139      0.2288
     92  O         11.7430   22.7640   18.2600 O.2   139  SER139     -0.2866
     93  CB        10.3690   24.6450   16.4850 C.3   139  SER139      0.2089
     94  OG         9.9450   25.5980   15.4910 O.3   139  SER139     -0.2183
     95  N         15.3340   28.2440   19.5020 N.3   154  PHE154     -0.1227
     96  CA        14.7720   28.5670   18.2060 C.3   154  PHE154      0.1736
     97  C         13.2410   28.4880   18.3320 C.2   154  PHE154      0.2595
     98  O         12.7000   27.4620   18.7110 O.2   154  PHE154     -0.2718
     99  CB        15.3710   27.5590   17.1860 C.3   154  PHE154      0.0547
    100  CG        14.8260   27.6450   15.7710 C.ar  154  PHE154     -0.0202
    101  CD1       14.2710   28.8080   15.2460 C.ar  154  PHE154     -0.0042
    102  CD2       14.9300   26.5530   14.9380 C.ar  154  PHE154     -0.0042
    103  CE1       13.7860   28.8420   13.9330 C.ar  154  PHE154     -0.0003
    104  CE2       14.4620   26.5890   13.6000 C.ar  154  PHE154     -0.0003
    105  CZ        13.8890   27.7220   13.1070 C.ar  154  PHE154     -0.0000
    106  N         12.5530   29.5940   18.0480 N.am  155  ARG155     -0.1966
    107  CA        11.0720   29.7170   18.2090 C.3   155  ARG155      0.1729
    108  C         10.3060   29.8110   16.8860 C.2   155  ARG155      0.2616
    109  O          9.2130   29.2640   16.7330 O.2   155  ARG155     -0.2715
    110  CB        10.7310   30.9580   19.0350 C.3   155  ARG155      0.0348
    111  CG         9.2890   30.9830   19.4290 C.3   155  ARG155      0.0492
    112  CD         8.7570   32.3350   19.8680 C.3   155  ARG155      0.2205
    113  NE         7.8060   32.8030   18.8610 N.pl3 155  ARG155     -0.0865
    114  CZ         7.9670   33.9400   18.1620 C.cat 155  ARG155      0.5346
    115  NH1        9.0340   34.7300   18.4040 N.pl3 155  ARG155      0.1354
    116  NH2        7.0790   34.2960   17.2170 N.pl3 155  ARG155      0.1354
    117  N         10.8860   30.5440   15.9360 N.am  156  ALA156     -0.1963
    118  CA        10.2500   30.7760   14.6340 C.3   156  ALA156      0.1728
    119  C         11.1960   31.2800   13.5630 C.2   156  ALA156      0.2616
    120  O         12.2720   31.8650   13.8270 O.2   156  ALA156     -0.2715
    121  CB         9.0300   31.7320   14.7530 C.3   156  ALA156      0.0334
    122  N         10.7410   31.0680   12.3440 N.am  157  ALA157     -0.1963
    123  CA        11.4980   31.4310   11.1830 C.3   157  ALA157      0.1728
    124  C         10.8590   32.5310   10.3480 C.2   157  ALA157      0.2616
    125  O          9.6230   32.6060   10.2030 O.2   157  ALA157     -0.2715
    126  CB        11.6770   30.2210   10.3460 C.3   157  ALA157      0.0334
    127  N         11.7280   33.3770    9.8040 N.am  158  VAL158     -0.1963
    128  CA        11.3380   34.3820    8.8320 C.3   158  VAL158      0.1727
    129  C         11.8160   33.8330    7.5240 C.2   158  VAL158      0.2616
    130  O         13.0270   33.7340    7.2630 O.2   158  VAL158     -0.2715
    131  CB        12.0470   35.7470    9.0510 C.3   158  VAL158      0.0290
    132  CG1       11.4140   36.8420    8.1510 C.3   158  VAL158      0.0023
    133  CG2       12.0370   36.1310   10.5290 C.3   158  VAL158      0.0023
    134  N         10.8570   33.4520    6.7130 N.am  159  CYS159     -0.1968
    135  CA        11.1780   32.8980    5.4250 C.3   159  CYS159      0.1712
    136  C         10.6460   33.8380    4.3120 C.2   159  CYS159      0.2296
    137  O          9.6950   34.5880    4.5350 O.2   159  CYS159     -0.2864
    138  CB        10.5790   31.4970    5.3460 C.3   159  CYS159      0.0983
    139  SG         8.9310   31.5100    4.5670 S.3   159  CYS159     -0.0798
    140  N         13.6360   33.7020   14.8800 N.3   168  ASP168     -0.1239
    141  CA        13.3030   34.3010   16.1550 C.3   168  ASP168      0.1674
    142  C         13.5260   33.2800   17.1900 C.2   168  ASP168      0.2266
    143  O         13.2080   32.1220   16.9480 O.2   168  ASP168     -0.2867
    144  CB        11.8560   34.7350   16.1950 C.3   168  ASP168      0.1410
    145  CG        11.6110   35.9370   15.3160 C.2   168  ASP168      0.3668
    146  OD1       12.5340   36.8220   15.2950 O.co2 168  ASP168     -0.2456
    147  OD2       10.5490   36.0510   14.6120 O.co2 168  ASP168     -0.2456
@<TRIPOS>BOND
     1    66    64    1
     2    60    61    1
     3   136   137    2
     4   136   135    1
     5   139   138    1
     6    64    61    1
     7    64    65    1
     8    61    62    1
     9   138   135    1
    10    62    63    2
    11   135   134    1
    12    65    67    1
    13   134   129   am
    14    83    82    1
    15    83    84    1
    16    82    81    1
    17   130   129    2
    18   129   128    1
    19    68    69    1
    20   132   131    1
    21    80    81    1
    22    80    77    1
    23   128   131    1
    24   128   127    1
    25   131   133    1
    26    76    77    1
    27    76    70   am
    28    73    74    1
    29    73    72    1
    30    73    75    1
    31    69    72    1
    32    69    70    1
    33    77    78    1
    34   127   124   am
    35    70    71    2
    36   125   124    2
    37   126   123    1
    38   124   123    1
    39    79    78    2
    40    78    85   am
    41   123   122    1
    42    58    57    1
    43    85    86    1
    44   122   119   am
    45    57    59    1
    46    57    56    2
    47    86    87    1
    48    55    56    1
    49    55    54    1
    50   105   104   ar
    51   105   103   ar
    52   119   120    2
    53   119   118    1
    54   104   102   ar
    55    87    88    2
    56   103   101   ar
    57    54    53    1
    58     9     7   am
    59    15    14    1
    60     6     7    1
    61     6     5    1
    62   147   145   ar
    63   118   121    1
    64   118   117    1
    65    14    16    1
    66    14    11    1
    67   140   141    1
    68     2     1    1
    69     2     5    1
    70     2     3    1
    71   102   100   ar
    72    13    12    2
    73    10    11    1
    74    10     3   am
    75     7     8    2
    76   101   100   ar
    77   146   145   ar
    78   145   144    1
    79    94    93    1
    80    89    90    1
    81    53    50    1
    82    11    12    1
    83     3     4    2
    84   100    99    1
    85    12    17   am
    86   117   108   am
    87    51    50    1
    88    51    52    2
    89   141   144    1
    90   141   142    1
    91    50    49    1
    92    93    90    1
    93    90    91    1
    94    44    42   ar
    95    44    43   ar
    96   109   108    2
    97   108   107    1
    98   143   142    2
    99    17    18    1
   100    42    40   ar
   101    99    96    1
   102   116   114    1
   103    18    21    1
   104    18    19    1
   105    43    41   ar
   106    21    22    1
   107    91    92    2
   108   106   107    1
   109   106    97   am
   110   114   115    1
   111   114   113    2
   112    96    97    1
   113    96    95    1
   114   107   110    1
   115    19    20    2
   116    40    41   ar
   117    40    39    1
   118    23    22   ar
   119    23    25   ar
   120    97    98    2
   121    38    37    2
   122    22    24   ar
   123   113   112    1
   124   110   111    1
   125    39    36    1
   126    25    27   ar
   127   111   112    1
   128    37    36    1
   129    37    45   am
   130    46    45    1
   131    46    47    1
   132    24    26   ar
   133    36    35    1
   134    34    32    1
   135    48    47    2
   136    27    26   ar
   137    33    32    1
   138    32    29    1
   139    29    28    1
   140    29    30    1
   141    31    30    2
