@<TRIPOS>MOLECULE
tmp/1rtwA00.pdb
 135 130 0 0 0
SMALL
GASTEIGER

@<TRIPOS>ATOM
      1  N         30.6750   45.2700   63.1310 N.3    41  ASP41      -0.1239
      2  CA        29.6350   45.3280   62.1170 C.3    41  ASP41       0.1674
      3  C         30.1450   46.0070   60.8600 C.2    41  ASP41       0.2266
      4  O         29.6870   45.6930   59.7580 O.2    41  ASP41      -0.2867
      5  CB        28.3940   46.0490   62.6200 C.3    41  ASP41       0.1410
      6  CG        27.1470   45.5780   61.9180 C.2    41  ASP41       0.3668
      7  OD1       26.8730   44.3660   61.9880 O.co2  41  ASP41      -0.2456
      8  OD2       26.4550   46.3940   61.2830 O.co2  41  ASP41      -0.2456
      9  N         31.5550   43.4870   58.9370 N.3    44  PHE44      -0.1227
     10  CA        30.5010   42.6760   58.3530 C.3    44  PHE44       0.1736
     11  C         29.9180   43.3640   57.1180 C.2    44  PHE44       0.2595
     12  O         29.7290   42.7210   56.0920 O.2    44  PHE44      -0.2718
     13  CB        29.3920   42.3760   59.3620 C.3    44  PHE44       0.0547
     14  CG        28.2870   41.5280   58.7990 C.ar   44  PHE44      -0.0202
     15  CD1       28.3640   40.1440   58.8410 C.ar   44  PHE44      -0.0042
     16  CD2       27.1890   42.1140   58.1840 C.ar   44  PHE44      -0.0042
     17  CE1       27.3540   39.3550   58.2720 C.ar   44  PHE44      -0.0003
     18  CE2       26.1800   41.3380   57.6130 C.ar   44  PHE44      -0.0003
     19  CZ        26.2610   39.9600   57.6580 C.ar   44  PHE44      -0.0000
     20  N         29.6820   44.6760   57.2110 N.am   45  VAL45      -0.1980
     21  CA        29.1220   45.4250   56.0920 C.3    45  VAL45       0.1595
     22  C         30.0130   45.4150   54.8480 C.2    45  VAL45       0.2287
     23  O         29.5120   45.3310   53.7270 O.2    45  VAL45      -0.2864
     24  CB        28.7590   46.8750   56.4860 C.3    45  VAL45       0.0276
     25  CG1       28.2760   47.6560   55.2690 C.3    45  VAL45       0.0022
     26  CG2       27.6580   46.8650   57.5440 C.3    45  VAL45       0.0022
     27  N         29.5910   41.9490   53.4570 N.3    48  ALA48      -0.1245
     28  CA        28.2300   41.7230   52.9880 C.3    48  ALA48       0.1562
     29  C         28.1580   42.2440   51.5430 C.2    48  ALA48       0.2260
     30  O         27.4490   41.6950   50.6970 O.2    48  ALA48      -0.2867
     31  CB        27.2480   42.4690   53.8670 C.3    48  ALA48       0.0290
     32  N         23.4950   49.8680   49.7760 N.3    72  ILE72      -0.1245
     33  CA        24.1610   49.3050   50.9510 C.3    72  ILE72       0.1561
     34  C         25.5740   49.8770   51.1380 C.2    72  ILE72       0.2260
     35  O         26.0240   50.0400   52.2650 O.2    72  ILE72      -0.2867
     36  CB        24.2240   47.7400   50.9030 C.3    72  ILE72       0.0252
     37  CG1       22.8170   47.1390   50.8880 C.3    72  ILE72       0.0019
     38  CG2       24.9110   47.1900   52.1310 C.3    72  ILE72       0.0019
     39  CD1       21.8950   47.6370   52.0230 C.3    72  ILE72       0.0001
     40  N         26.3060   52.6450   53.6380 N.3    75  GLU75      -0.1245
     41  CA        26.4690   52.3240   55.0540 C.3    75  GLU75       0.1567
     42  C         27.9220   52.4950   55.5000 C.2    75  GLU75       0.2260
     43  O         28.1780   52.8150   56.6560 O.2    75  GLU75      -0.2867
     44  CB        26.0320   50.8890   55.3470 C.3    75  GLU75       0.0388
     45  CG        24.5350   50.6340   55.2450 C.3    75  GLU75       0.1160
     46  CD        24.1530   49.1980   55.6040 C.2    75  GLU75       0.3649
     47  OE1       25.0120   48.4530   56.1090 O.co2  75  GLU75      -0.2457
     48  OE2       22.9830   48.8200   55.3920 O.co2  75  GLU75      -0.2457
     49  N         30.8800   34.4350   60.4720 N.3   100  TYR100     -0.1241
     50  CA        29.5920   34.7320   59.8680 C.3   100  TYR100      0.1605
     51  C         29.9000   35.1830   58.4410 C.2   100  TYR100      0.2264
     52  O         29.2590   34.7380   57.4890 O.2   100  TYR100     -0.2867
     53  CB        28.8870   35.8410   60.6770 C.3   100  TYR100      0.0534
     54  CG        27.4850   36.2300   60.2290 C.ar  100  TYR100     -0.0201
     55  CD1       26.8910   35.6400   59.1150 C.ar  100  TYR100     -0.0009
     56  CD2       26.7640   37.2200   60.9170 C.ar  100  TYR100     -0.0009
     57  CE1       25.6280   36.0190   58.6910 C.ar  100  TYR100      0.0417
     58  CE2       25.4980   37.6050   60.4990 C.ar  100  TYR100      0.0417
     59  CZ        24.9440   36.9970   59.3840 C.ar  100  TYR100      0.1957
     60  OH        23.7100   37.3500   58.9500 O.3   100  TYR100     -0.2866
     61  N         19.4530   38.0390   56.5370 N.3   123  GLU123     -0.1231
     62  CA        20.3160   39.0490   57.1310 C.3   123  GLU123      0.1699
     63  C         19.7260   40.4620   57.1240 C.2   123  GLU123      0.2592
     64  O         19.8990   41.1980   58.0960 O.2   123  GLU123     -0.2718
     65  CB        21.6710   39.0280   56.4270 C.3   123  GLU123      0.0402
     66  CG        22.3440   40.3720   56.3150 C.3   123  GLU123      0.1161
     67  CD        22.6830   40.7310   54.9030 C.2   123  GLU123      0.3649
     68  OE1       22.5130   39.9030   53.9810 O.co2 123  GLU123     -0.2457
     69  OE2       23.1260   41.8630   54.7230 O.co2 123  GLU123     -0.2457
     70  N         19.0700   40.8460   56.0250 N.am  124  GLU124     -0.1979
     71  CA        18.4850   42.1820   55.9030 C.3   124  GLU124      0.1602
     72  C         17.2260   42.3150   56.7450 C.2   124  GLU124      0.2287
     73  O         17.0670   43.2820   57.4860 O.2   124  GLU124     -0.2864
     74  CB        18.1850   42.5330   54.4350 C.3   124  GLU124      0.0415
     75  CG        19.3930   42.4790   53.4780 C.3   124  GLU124      0.1163
     76  CD        20.4760   43.5070   53.7770 C.2   124  GLU124      0.3649
     77  OE1       20.7090   43.7980   54.9450 O.co2 124  GLU124     -0.2457
     78  OE2       21.1430   44.0010   52.8470 O.co2 124  GLU124     -0.2457
     79  N         17.8780   42.6410   60.5110 N.3   127  TYR127     -0.1241
     80  CA        18.2530   43.9540   61.0130 C.3   127  TYR127      0.1605
     81  C         17.0630   44.8940   60.9980 C.2   127  TYR127      0.2264
     82  O         16.9160   45.7480   61.8760 O.2   127  TYR127     -0.2867
     83  CB        19.4130   44.5450   60.2100 C.3   127  TYR127      0.0534
     84  CG        20.6860   44.6040   61.0200 C.ar  127  TYR127     -0.0201
     85  CD1       21.5220   45.7160   60.9720 C.ar  127  TYR127     -0.0009
     86  CD2       21.0440   43.5450   61.8510 C.ar  127  TYR127     -0.0009
     87  CE1       22.6850   45.7660   61.7350 C.ar  127  TYR127      0.0417
     88  CE2       22.1930   43.5880   62.6110 C.ar  127  TYR127      0.0417
     89  CZ        23.0150   44.6950   62.5460 C.ar  127  TYR127      0.1957
     90  OH        24.1920   44.6960   63.2500 O.3   127  TYR127     -0.2866
     91  N         18.2270   51.5680   59.5890 N.3   151  TRP151     -0.1241
     92  CA        17.7020   50.2010   59.5080 C.3   151  TRP151      0.1605
     93  C         16.2240   50.0190   59.8410 C.2   151  TRP151      0.2264
     94  O         15.6660   48.9410   59.6150 O.2   151  TRP151     -0.2867
     95  CB        18.5650   49.2290   60.3120 C.3   151  TRP151      0.0550
     96  CG        19.8980   48.9650   59.6760 C.ar  151  TRP151      0.0003
     97  CD1       20.1230   48.5210   58.4060 C.ar  151  TRP151      0.0946
     98  CD2       21.1890   49.1380   60.2730 C.ar  151  TRP151      0.0152
     99  NE1       21.4730   48.4090   58.1700 N.ar  151  TRP151     -0.2442
    100  CE2       22.1550   48.7790   59.3040 C.ar  151  TRP151      0.0810
    101  CE3       21.6320   49.5580   61.5390 C.ar  151  TRP151      0.0012
    102  CZ2       23.5270   48.8250   59.5500 C.ar  151  TRP151      0.0191
    103  CZ3       23.0020   49.6030   61.7850 C.ar  151  TRP151      0.0001
    104  CH2       23.9310   49.2370   60.7960 C.ar  151  TRP151      0.0015
    105  N         14.5420   51.4130   54.0370 N.3   156  PHE156     -0.1241
    106  CA        15.1500   50.1060   54.2500 C.3   156  PHE156      0.1605
    107  C         14.0620   49.0230   54.2490 C.2   156  PHE156      0.2264
    108  O         14.2520   47.9300   53.6990 O.2   156  PHE156     -0.2867
    109  CB        15.9560   50.0690   55.5480 C.3   156  PHE156      0.0534
    110  CG        16.9350   48.9240   55.6120 C.ar  156  PHE156     -0.0203
    111  CD1       18.1120   48.9510   54.8630 C.ar  156  PHE156     -0.0042
    112  CD2       16.6630   47.8050   56.3870 C.ar  156  PHE156     -0.0042
    113  CE1       19.0060   47.8640   54.8820 C.ar  156  PHE156     -0.0003
    114  CE2       17.5430   46.7150   56.4180 C.ar  156  PHE156     -0.0003
    115  CZ        18.7180   46.7410   55.6630 C.ar  156  PHE156     -0.0000
    116  N         22.9720   35.7870   63.2010 N.3   193  GLU193     -0.1245
    117  CA        22.4230   37.0960   63.5580 C.3   193  GLU193      0.1567
    118  C         22.3060   37.1920   65.0750 C.2   193  GLU193      0.2260
    119  O         22.6180   38.2270   65.6650 O.2   193  GLU193     -0.2867
    120  CB        21.0310   37.2660   62.9520 C.3   193  GLU193      0.0388
    121  CG        21.0260   37.6920   61.5090 C.3   193  GLU193      0.1160
    122  CD        21.6400   39.0580   61.3120 C.2   193  GLU193      0.3649
    123  OE1       21.3270   39.9950   62.0720 O.co2 193  GLU193     -0.2457
    124  OE2       22.4600   39.1900   60.3960 O.co2 193  GLU193     -0.2457
    125  N         25.8920   37.4200   66.7420 N.3   196  PHE196     -0.1241
    126  CA        26.5840   38.6810   66.4710 C.3   196  PHE196      0.1605
    127  C         26.3450   39.7410   67.5460 C.2   196  PHE196      0.2264
    128  O         27.2740   40.4610   67.9200 O.2   196  PHE196     -0.2867
    129  CB        26.2250   39.2200   65.0800 C.3   196  PHE196      0.0534
    130  CG        27.2820   40.1180   64.4830 C.ar  196  PHE196     -0.0203
    131  CD1       27.3710   41.4610   64.8380 C.ar  196  PHE196     -0.0042
    132  CD2       28.1940   39.6120   63.5680 C.ar  196  PHE196     -0.0042
    133  CE1       28.3600   42.2840   64.2830 C.ar  196  PHE196     -0.0003
    134  CE2       29.1770   40.4160   63.0090 C.ar  196  PHE196     -0.0003
    135  CZ        29.2660   41.7510   63.3630 C.ar  196  PHE196     -0.0000
@<TRIPOS>BOND
     1    32    33    1
     2    30    29    2
     3    37    36    1
     4    37    39    1
     5    36    33    1
     6    36    38    1
     7    33    34    1
     8    34    35    2
     9    29    28    1
    10    78    76   ar
    11    28    27    1
    12    28    31    1
    13    75    76    1
    14    75    74    1
    15    40    41    1
    16   108   107    2
    17    23    22    2
    18    76    77   ar
    19    68    67   ar
    20   105   106    1
    21   107   106    1
    22   106   109    1
    23    74    71    1
    24    69    67   ar
    25    22    21    1
    26   111   113   ar
    27   111   110   ar
    28   113   115   ar
    29    67    66    1
    30    41    44    1
    31    41    42    1
    32    45    44    1
    33    45    46    1
    34    25    24    1
    35    48    46   ar
    36    42    43    2
    37   109   110    1
    38    46    47   ar
    39   110   112   ar
    40   115   114   ar
    41    71    70    1
    42    71    72    1
    43    70    63   am
    44    21    24    1
    45    21    20    1
    46    12    11    2
    47    66    65    1
    48   112   114   ar
    49    65    62    1
    50    24    26    1
    51    61    62    1
    52    72    73    2
    53    11    20   am
    54    11    10    1
    55    63    62    1
    56    63    64    2
    57    52    51    2
    58    18    19   ar
    59    18    16   ar
    60    19    17   ar
    61    99    97   ar
    62    99   100   ar
    63    16    14   ar
    64    17    15   ar
    65    10     9    1
    66    10    13    1
    67    97    96   ar
    68    51    50    1
    69    57    55   ar
    70    57    59   ar
    71    14    15   ar
    72    14    13    1
    73    60    59    1
    74    55    54   ar
    75   100   102   ar
    76   100    98   ar
    77    59    58   ar
    78    92    91    1
    79    92    93    1
    80    92    95    1
    81   102   104   ar
    82    94    93    2
    83    96    98   ar
    84    96    95    1
    85     4     3    2
    86    50    49    1
    87    50    53    1
    88    83    80    1
    89    83    84    1
    90    54    53    1
    91    54    56   ar
    92    98   101   ar
    93   124   122   ar
    94    58    56   ar
    95    79    80    1
    96   104   103   ar
    97     3     2    1
    98    85    84   ar
    99    85    87   ar
   100    81    80    1
   101    81    82    2
   102    84    86   ar
   103     8     6   ar
   104   122   121    1
   105   122   123   ar
   106   121   120    1
   107   101   103   ar
   108    87    89   ar
   109    86    88   ar
   110     6     7   ar
   111     6     5    1
   112     2     5    1
   113     2     1    1
   114    89    88   ar
   115    89    90    1
   116   120   117    1
   117   134   135   ar
   118   134   132   ar
   119   116   117    1
   120   135   133   ar
   121   117   118    1
   122   132   130   ar
   123   133   131   ar
   124   130   131   ar
   125   130   129    1
   126   118   119    2
   127   129   126    1
   128   126   125    1
   129   126   127    1
   130   127   128    2
