@<TRIPOS>MOLECULE
tmp/1rtxA00.pdb
 205 199 0 0 0
SMALL
GASTEIGER

@<TRIPOS>ATOM
      1  N          2.3100   14.2740   18.0800 N.3    30  ILE30      -0.1245
      2  CA         2.4750   13.6750   16.7560 C.3    30  ILE30       0.1561
      3  C          1.4410   12.5950   16.4420 C.2    30  ILE30       0.2260
      4  O          1.4170   12.0760   15.3260 O.2    30  ILE30      -0.2867
      5  CB         3.9110   13.0860   16.6330 C.3    30  ILE30       0.0252
      6  CG1        4.1740   12.1570   17.8090 C.3    30  ILE30       0.0019
      7  CG2        4.9810   14.2040   16.5890 C.3    30  ILE30       0.0019
      8  CD1        5.2670   11.1370   17.5820 C.3    30  ILE30       0.0001
      9  N         -0.6800   12.6920   13.0560 N.3    33  PHE33      -0.1227
     10  CA        -0.1430   12.4260   11.7330 C.3    33  PHE33       0.1736
     11  C         -0.6220   11.0980   11.2440 C.2    33  PHE33       0.2595
     12  O         -0.5680   10.8350   10.0470 O.2    33  PHE33      -0.2718
     13  CB         1.3850   12.5260   11.7420 C.3    33  PHE33       0.0547
     14  CG         1.8680   13.9250   11.9180 C.ar   33  PHE33      -0.0202
     15  CD1        1.7930   14.8450   10.8620 C.ar   33  PHE33      -0.0042
     16  CD2        2.3530   14.3570   13.1410 C.ar   33  PHE33      -0.0042
     17  CE1        2.2170   16.1790   11.0450 C.ar   33  PHE33      -0.0003
     18  CE2        2.7930   15.6810   13.3280 C.ar   33  PHE33      -0.0003
     19  CZ         2.7160   16.5920   12.2660 C.ar   33  PHE33      -0.0000
     20  N         -1.1430   10.2890   12.1720 N.am   34  PHE34      -0.1976
     21  CA        -1.6130    8.9540   11.8750 C.3    34  PHE34       0.1639
     22  C         -3.1310    8.8430   11.8590 C.2    34  PHE34       0.2290
     23  O         -3.6590    7.7360   11.7050 O.2    34  PHE34      -0.2864
     24  CB        -1.0170    7.9410   12.8540 C.3    34  PHE34       0.0560
     25  CG         0.4660    7.8610   12.7910 C.ar   34  PHE34      -0.0200
     26  CD1        1.2360    8.6570   13.6100 C.ar   34  PHE34      -0.0042
     27  CD2        1.0980    7.0110   11.8770 C.ar   34  PHE34      -0.0042
     28  CE1        2.6120    8.5970   13.5750 C.ar   34  PHE34      -0.0003
     29  CE2        2.4890    6.9470   11.8330 C.ar   34  PHE34      -0.0003
     30  CZ         3.2460    7.7400   12.6830 C.ar   34  PHE34      -0.0000
     31  N         -5.5400    9.4420    9.7100 N.3    36  ASP36      -0.1225
     32  CA        -6.2510    8.9200    8.5370 C.3    36  ASP36       0.1805
     33  C         -5.7690    7.5340    8.1120 C.2    36  ASP36       0.2597
     34  O         -6.0440    7.0690    7.0120 O.2    36  ASP36      -0.2718
     35  CB        -6.2180    9.9100    7.3590 C.3    36  ASP36       0.1424
     36  CG        -4.8250   10.2470    6.9150 C.2    36  ASP36       0.3668
     37  OD1       -3.9420   10.3780    7.7940 O.co2  36  ASP36      -0.2456
     38  OD2       -4.5110   10.3810    5.7010 O.co2  36  ASP36      -0.2456
     39  N         -5.0480    6.8640    8.9940 N.am   37  VAL37      -0.1980
     40  CA        -4.5740    5.5370    8.6560 C.3    37  VAL37       0.1595
     41  C         -4.9810    4.5720    9.7660 C.2    37  VAL37       0.2287
     42  O         -5.2650    5.0180   10.8820 O.2    37  VAL37      -0.2864
     43  CB        -3.0800    5.5860    8.3060 C.3    37  VAL37       0.0276
     44  CG1       -2.2010    5.5220    9.5220 C.3    37  VAL37       0.0022
     45  CG2       -2.7550    4.5350    7.3060 C.3    37  VAL37       0.0022
     46  N         -1.6340   -0.1290   10.1140 N.3    41  LYS41      -0.1245
     47  CA        -0.6800    0.6570    9.3370 C.3    41  LYS41       0.1561
     48  C          0.1660    1.6000   10.1920 C.2    41  LYS41       0.2260
     49  O          1.3390    1.7940    9.8930 O.2    41  LYS41      -0.2867
     50  CB        -1.3570    1.3950    8.1820 C.3    41  LYS41       0.0271
     51  CG        -1.3390    0.5660    6.8870 C.3    41  LYS41       0.0035
     52  CD        -0.1580    0.9380    5.9890 C.3    41  LYS41       0.0206
     53  CE         0.9370   -0.1550    5.9870 C.3    41  LYS41       0.1093
     54  NZ         2.3090    0.4160    5.7420 N.3    41  LYS41      -0.1314
     55  N          4.2640    1.3590   10.3620 N.3    45  HIS45      -0.1241
     56  CA         5.1350    2.5200   10.2280 C.3    45  HIS45       0.1621
     57  C          6.2180    2.5610   11.2920 C.2    45  HIS45       0.2264
     58  O          7.3950    2.7900   10.9840 O.2    45  HIS45      -0.2867
     59  CB         4.3900    3.8470   10.2850 C.3    45  HIS45       0.0745
     60  CG         5.3150    4.9990   10.0800 C.ar   45  HIS45       0.0817
     61  ND1        5.9940    5.6040   11.1170 N.ar   45  HIS45      -0.2268
     62  CD2        5.8090    5.5290    8.9470 C.ar   45  HIS45       0.1154
     63  CE1        6.7800    6.5400   10.6330 C.ar   45  HIS45       0.1986
     64  NE2        6.6820    6.5180    9.3130 N.ar   45  HIS45      -0.2212
     65  N          8.7940    0.1750   10.3570 N.3    48  ALA48      -0.1231
     66  CA         9.6500    0.6920    9.3090 C.3    48  ALA48       0.1694
     67  C         10.6960    1.6950    9.8090 C.2    48  ALA48       0.2592
     68  O         11.8770    1.5890    9.4780 O.2    48  ALA48      -0.2718
     69  CB         8.8170    1.2540    8.1840 C.3    48  ALA48       0.0304
     70  N         10.2550    2.6540   10.6240 N.am   49  PHE49      -0.1976
     71  CA        11.1200    3.6680   11.2170 C.3    49  PHE49       0.1639
     72  C         12.2380    3.0160   12.0230 C.2    49  PHE49       0.2290
     73  O         13.4020    3.3980   11.9060 O.2    49  PHE49      -0.2864
     74  CB        10.2500    4.5800   12.1060 C.3    49  PHE49       0.0560
     75  CG        10.9360    5.8200   12.6370 C.ar   49  PHE49      -0.0200
     76  CD1       10.4780    7.0790   12.2500 C.ar   49  PHE49      -0.0042
     77  CD2       11.9330    5.7520   13.6330 C.ar   49  PHE49      -0.0042
     78  CE1       11.0610    8.2380   12.7600 C.ar   49  PHE49      -0.0003
     79  CE2       12.5240    6.9290   14.1480 C.ar   49  PHE49      -0.0003
     80  CZ        12.0950    8.1580   13.7200 C.ar   49  PHE49      -0.0000
     81  N         14.7460    1.2330    9.8480 N.3    52  TYR52      -0.1241
     82  CA        15.6070    2.2420    9.2620 C.3    52  TYR52       0.1605
     83  C         16.6880    2.6830   10.2430 C.2    52  TYR52       0.2264
     84  O         17.8920    2.6850    9.9230 O.2    52  TYR52      -0.2867
     85  CB        14.7760    3.4520    8.7990 C.3    52  TYR52       0.0534
     86  CG        15.6400    4.4770    8.1090 C.ar   52  TYR52      -0.0201
     87  CD1       15.7040    4.5430    6.7160 C.ar   52  TYR52      -0.0009
     88  CD2       16.4040    5.3710    8.8500 C.ar   52  TYR52      -0.0009
     89  CE1       16.5340    5.4850    6.0830 C.ar   52  TYR52       0.0417
     90  CE2       17.2450    6.2900    8.2320 C.ar   52  TYR52       0.0417
     91  CZ        17.3020    6.3420    6.8540 C.ar   52  TYR52       0.1957
     92  OH        18.1110    7.2830    6.2760 O.3    52  TYR52      -0.2866
     93  N         14.1990    1.9900    2.0440 N.3    60  TYR60      -0.1241
     94  CA        13.6250    3.3040    2.2880 C.3    60  TYR60       0.1605
     95  C         14.4530    4.3390    1.5400 C.2    60  TYR60       0.2264
     96  O         15.1000    5.1900    2.1340 O.2    60  TYR60      -0.2867
     97  CB        13.5850    3.6090    3.7880 C.3    60  TYR60       0.0534
     98  CG        12.9810    2.4660    4.5810 C.ar   60  TYR60      -0.0201
     99  CD1       13.7680    1.6940    5.4460 C.ar   60  TYR60      -0.0009
    100  CD2       11.6400    2.1200    4.4180 C.ar   60  TYR60      -0.0009
    101  CE1       13.2070    0.6130    6.1560 C.ar   60  TYR60       0.0417
    102  CE2       11.0710    1.0570    5.1180 C.ar   60  TYR60       0.0417
    103  CZ        11.8580    0.3150    5.9830 C.ar   60  TYR60       0.1957
    104  OH        11.2890   -0.7410    6.6730 O.3    60  TYR60      -0.2866
    105  N         11.3950    7.8280   -2.1310 N.3    64  TYR64      -0.1227
    106  CA        10.1970    7.2440   -1.5430 C.3    64  TYR64       0.1736
    107  C          9.8710    7.9460   -0.2100 C.2    64  TYR64       0.2595
    108  O          8.6940    8.2210    0.0740 O.2    64  TYR64      -0.2718
    109  CB        10.3800    5.7310   -1.3780 C.3    64  TYR64       0.0548
    110  CG         9.2190    4.9620   -0.7570 C.ar   64  TYR64      -0.0200
    111  CD1        7.9070    5.2210   -1.1130 C.ar   64  TYR64      -0.0009
    112  CD2        9.4670    3.9380    0.1660 C.ar   64  TYR64      -0.0009
    113  CE1        6.8560    4.5030   -0.5680 C.ar   64  TYR64       0.0417
    114  CE2        8.4170    3.2170    0.7330 C.ar   64  TYR64       0.0417
    115  CZ         7.1160    3.5050    0.3590 C.ar   64  TYR64       0.1957
    116  OH         6.0800    2.7710    0.9040 O.3    64  TYR64      -0.2866
    117  N         10.8900    8.2790    0.5710 N.am   65  MET65      -0.1979
    118  CA        10.6470    9.0100    1.8240 C.3    65  MET65       0.1605
    119  C         10.0110   10.3610    1.5400 C.2    65  MET65       0.2287
    120  O          9.0180   10.7140    2.1530 O.2    65  MET65      -0.2864
    121  CB        11.9110    9.1490    2.6690 C.3    65  MET65       0.0413
    122  CG        12.4270    7.8070    3.2020 C.3    65  MET65       0.0598
    123  SD        11.1490    6.9090    4.1110 S.3    65  MET65      -0.1393
    124  CE        10.3580    5.9390    2.9340 C.3    65  MET65       0.0692
    125  N          6.3790    9.6930    0.3680 N.3    68  ALA68      -0.1231
    126  CA         5.5580    9.0300    1.3970 C.3    68  ALA68       0.1694
    127  C          5.0660    9.9950    2.4850 C.2    68  ALA68       0.2592
    128  O          3.9960    9.8000    3.0540 O.2    68  ALA68      -0.2718
    129  CB         6.3080    7.8300    2.0140 C.3    68  ALA68       0.0304
    130  N          5.8470   11.0280    2.7600 N.am   69  HIS69      -0.1976
    131  CA         5.4940   12.0310    3.7640 C.3    69  HIS69       0.1656
    132  C          4.9810   13.3550    3.2020 C.2    69  HIS69       0.2291
    133  O          4.7600   14.2940    3.9410 O.2    69  HIS69      -0.2864
    134  CB         6.7050   12.3040    4.6400 C.3    69  HIS69       0.0771
    135  CG         7.2440   11.0670    5.2670 C.ar   69  HIS69       0.0820
    136  ND1        8.0990   10.2110    4.6010 N.ar   69  HIS69      -0.2267
    137  CD2        6.9820   10.4970    6.4600 C.ar   69  HIS69       0.1154
    138  CE1        8.3780    9.1820    5.3820 C.ar   69  HIS69       0.1986
    139  NE2        7.7070    9.3300    6.5160 N.ar   69  HIS69      -0.2212
    140  N          1.7580   14.6320    4.7470 N.3    72  LEU72      -0.1245
    141  CA         2.0360   15.1250    6.1110 C.3    72  LEU72       0.1561
    142  C          2.5790   16.5390    6.0670 C.2    72  LEU72       0.2260
    143  O          2.1280   17.3990    6.8360 O.2    72  LEU72      -0.2867
    144  CB         3.0540   14.2610    6.8240 C.3    72  LEU72       0.0270
    145  CG         2.7530   12.7880    6.8400 C.3    72  LEU72       0.0019
    146  CD1        3.8510   12.1530    7.6760 C.3    72  LEU72       0.0001
    147  CD2        1.3330   12.5900    7.4170 C.3    72  LEU72       0.0001
    148  N          3.4830   18.9140    8.9550 N.3    78  LEU78      -0.1245
    149  CA         4.6520   18.2210    9.4920 C.3    78  LEU78       0.1561
    150  C          5.8920   19.1060    9.4080 C.2    78  LEU78       0.2260
    151  O          6.2540   19.6040    8.3430 O.2    78  LEU78      -0.2867
    152  CB         4.8910   16.8690    8.7850 C.3    78  LEU78       0.0270
    153  CG         6.0870   16.0640    9.3200 C.3    78  LEU78       0.0019
    154  CD1        5.7620   15.4230   10.6770 C.3    78  LEU78       0.0001
    155  CD2        6.5780   15.0100    8.3330 C.3    78  LEU78       0.0001
    156  N          8.1810   17.9690   14.9520 N.3    82  HIS82      -0.1226
    157  CA         7.4590   16.6950   14.9340 C.3    82  HIS82       0.1752
    158  C          8.3810   15.5320   14.6440 C.2    82  HIS82       0.2596
    159  O          8.2810   14.4720   15.2680 O.2    82  HIS82      -0.2718
    160  CB         6.3670   16.7290   13.8730 C.3    82  HIS82       0.0759
    161  CG         5.4110   17.8650   14.0520 C.ar   82  HIS82       0.0818
    162  ND1        5.1640   18.7890   13.0600 N.ar   82  HIS82      -0.2268
    163  CD2        4.6610   18.2350   15.1160 C.ar   82  HIS82       0.1154
    164  CE1        4.2920   19.6750   13.5050 C.ar   82  HIS82       0.1986
    165  NE2        3.9850   19.3710   14.7550 N.ar   82  HIS82      -0.2212
    166  N          9.2460   15.7250   13.6630 N.am   83  PHE83      -0.1976
    167  CA        10.2430   14.7370   13.3090 C.3    83  PHE83       0.1639
    168  C         11.0510   14.3810   14.5680 C.2    83  PHE83       0.2290
    169  O         11.2080   13.2150   14.9110 O.2    83  PHE83      -0.2864
    170  CB        11.1370   15.2540   12.1720 C.3    83  PHE83       0.0560
    171  CG        12.1360   14.2430   11.6760 C.ar   83  PHE83      -0.0200
    172  CD1       13.3270   14.0080   12.3700 C.ar   83  PHE83      -0.0042
    173  CD2       11.8840   13.5250   10.5230 C.ar   83  PHE83      -0.0042
    174  CE1       14.2480   13.0610   11.9000 C.ar   83  PHE83      -0.0003
    175  CE2       12.7680   12.5870   10.0670 C.ar   83  PHE83      -0.0003
    176  CZ        13.9650   12.3530   10.7520 C.ar   83  PHE83      -0.0000
    177  N          9.2730   12.1210   17.2260 N.3    86  VAL86      -0.1245
    178  CA         9.2380   10.7060   16.8840 C.3    86  VAL86       0.1561
    179  C         10.6140   10.0790   17.1810 C.2    86  VAL86       0.2260
    180  O         10.6930    8.9950   17.7710 O.2    86  VAL86      -0.2867
    181  CB         8.8410   10.5040   15.3820 C.3    86  VAL86       0.0252
    182  CG1        8.7410    9.0260   15.0340 C.3    86  VAL86       0.0019
    183  CG2        7.4680   11.1400   15.0830 C.3    86  VAL86       0.0019
    184  N         18.4540    7.4560   12.4780 N.3   111  ALA111     -0.1245
    185  CA        17.0540    7.8890   12.4610 C.3   111  ALA111      0.1562
    186  C         16.9390    9.3850   12.2620 C.2   111  ALA111      0.2260
    187  O         16.0500    9.8470   11.5650 O.2   111  ALA111     -0.2867
    188  CB        16.3700    7.4820   13.7670 C.3   111  ALA111      0.0290
    189  N         17.9080   12.1560    5.6960 N.3   116  HIS116     -0.1241
    190  CA        16.5940   11.5480    5.9290 C.3   116  HIS116      0.1621
    191  C         15.5930   12.5770    6.4760 C.2   116  HIS116      0.2264
    192  O         14.4510   12.6440    6.0190 O.2   116  HIS116     -0.2867
    193  CB        16.7020   10.3550    6.8710 C.3   116  HIS116      0.0745
    194  CG        15.3970    9.6590    7.0910 C.ar  116  HIS116      0.0817
    195  ND1       14.6470    9.1490    6.0540 N.ar  116  HIS116     -0.2268
    196  CD2       14.6870    9.4340    8.2200 C.ar  116  HIS116      0.1154
    197  CE1       13.5470    8.6080    6.5380 C.ar  116  HIS116      0.1986
    198  NE2       13.5460    8.7700    7.8480 N.ar  116  HIS116     -0.2212
    199  N         12.0750   13.4390    4.6730 N.3   120  VAL120     -0.1245
    200  CA        10.7850   13.3080    5.3620 C.3   120  VAL120      0.1561
    201  C         10.0610   14.6600    5.3880 C.2   120  VAL120      0.2260
    202  O          8.8610   14.7350    5.1020 O.2   120  VAL120     -0.2867
    203  CB        10.9510   12.6950    6.7920 C.3   120  VAL120      0.0252
    204  CG1        9.6380   12.7030    7.5580 C.3   120  VAL120      0.0019
    205  CG2       11.4210   11.2510    6.7040 C.3   120  VAL120      0.0019
@<TRIPOS>BOND
     1   105   106    1
     2   106   109    1
     3   106   107    1
     4   109   110    1
     5   111   110   ar
     6   111   113   ar
     7   110   112   ar
     8   113   115   ar
     9   107   108    2
    10   107   117   am
    11   112   114   ar
    12   115   114   ar
    13   115   116    1
    14   125   126    1
    15   117   118    1
    16   126   129    1
    17   126   127    1
    18   119   118    1
    19   119   120    2
    20    95    96    2
    21    95    94    1
    22   118   121    1
    23    93    94    1
    24    94    97    1
    25   127   130   am
    26   127   128    2
    27   121   122    1
    28   130   131    1
    29   124   123    1
    30   132   131    1
    31   132   133    2
    32   122   123    1
    33   131   134    1
    34    97    98    1
    35   100    98   ar
    36   100   102   ar
    37    98    99   ar
    38   136   135   ar
    39   136   138   ar
    40   134   135    1
    41   199   200    1
    42   140   141    1
    43   202   201    2
    44   102   103   ar
    45   135   137   ar
    46   200   201    1
    47   200   203    1
    48   138   139   ar
    49    99   101   ar
    50   189   190    1
    51    38    36   ar
    52    54    53    1
    53   190   191    1
    54   190   193    1
    55   103   101   ar
    56   103   104    1
    57    53    52    1
    58    52    51    1
    59   192   191    2
    60   195   197   ar
    61   195   194   ar
    62   142   141    1
    63   142   143    2
    64    89    87   ar
    65    89    91   ar
    66   141   144    1
    67    92    91    1
    68   137   139   ar
    69   197   198   ar
    70   205   203    1
    71    87    86   ar
    72   203   204    1
    73   144   145    1
    74   145   147    1
    75   145   146    1
    76    91    90   ar
    77   193   194    1
    78    51    50    1
    79    36    35    1
    80    36    37   ar
    81    34    33    2
    82   194   196   ar
    83    45    43    1
    84    35    32    1
    85   198   196   ar
    86    86    85    1
    87    86    88   ar
    88    33    32    1
    89    33    39   am
    90    50    47    1
    91    69    66    1
    92    90    88   ar
    93    43    40    1
    94    43    44    1
    95   155   153    1
    96   151   150    2
    97    32    31    1
    98    40    39    1
    99    40    41    1
   100   152   153    1
   101   152   149    1
   102    85    82    1
   103    62    64   ar
   104    62    60   ar
   105   148   149    1
   106    82    81    1
   107    82    83    1
   108    66    67    1
   109    66    65    1
   110    64    63   ar
   111   153   154    1
   112    47    46    1
   113    47    48    1
   114   150   149    1
   115    68    67    2
   116    41    42    2
   117    67    70   am
   118    49    48    2
   119    84    83    2
   120    12    11    2
   121   175   173   ar
   122   175   176   ar
   123    60    59    1
   124    60    61   ar
   125    56    59    1
   126    56    55    1
   127    56    57    1
   128   173   171   ar
   129    70    71    1
   130    63    61   ar
   131   176   174   ar
   132    15    17   ar
   133    15    14   ar
   134    58    57    2
   135    17    19   ar
   136    71    72    1
   137    71    74    1
   138    11    10    1
   139    11    20   am
   140   187   186    2
   141   171   170    1
   142   171   172   ar
   143    23    22    2
   144    10    13    1
   145    10     9    1
   146    13    14    1
   147    29    27   ar
   148    29    30   ar
   149    22    21    1
   150    21    20    1
   151    21    24    1
   152    27    25   ar
   153   174   172   ar
   154    73    72    2
   155    14    16   ar
   156    74    75    1
   157   170   167    1
   158    76    75   ar
   159    76    78   ar
   160   186   185    1
   161    19    18   ar
   162   185   184    1
   163   185   188    1
   164    75    77   ar
   165    30    28   ar
   166    78    80   ar
   167    25    24    1
   168    25    26   ar
   169   162   164   ar
   170   162   161   ar
   171    16    18   ar
   172   167   166    1
   173   167   168    1
   174   164   165   ar
   175    28    26   ar
   176    77    79   ar
   177   166   158   am
   178    80    79   ar
   179   160   161    1
   180   160   157    1
   181   161   163   ar
   182   168   169    2
   183   158   157    1
   184   158   159    2
   185   165   163   ar
   186   157   156    1
   187   182   181    1
   188   183   181    1
   189     4     3    2
   190   181   178    1
   191     3     2    1
   192     7     5    1
   193     5     2    1
   194     5     6    1
   195     2     1    1
   196   178   179    1
   197   178   177    1
   198   179   180    2
   199     8     6    1
