@<TRIPOS>MOLECULE
tmp/1rudA00.pdb
 220 209 0 0 0
SMALL
GASTEIGER

@<TRIPOS>ATOM
      1  N         43.4130    0.5920  130.8160 N.3    88  ILE88      -0.1231
      2  CA        43.1710    1.3970  129.6180 C.3    88  ILE88       0.1692
      3  C         41.9950    2.3320  129.8540 C.2    88  ILE88       0.2593
      4  O         40.9300    1.9180  130.3300 O.2    88  ILE88      -0.2718
      5  CB        42.9010    0.5130  128.4160 C.3    88  ILE88       0.0266
      6  CG1       43.9600   -0.5700  128.2540 C.3    88  ILE88       0.0019
      7  CG2       42.8860    1.3000  127.1020 C.3    88  ILE88       0.0020
      8  CD1       44.1230   -1.0320  126.8110 C.3    88  ILE88       0.0001
      9  N         42.2600    3.5580  129.5020 N.am   89  SER89      -0.1938
     10  CA        41.3300    4.6690  129.6560 C.3    89  SER89       0.2055
     11  C         41.9080    5.8320  128.8670 C.2    89  SER89       0.2643
     12  O         43.0760    5.8120  128.4690 O.2    89  SER89      -0.2714
     13  CB        41.2120    4.9970  131.1430 C.3    89  SER89       0.2130
     14  OG        40.2960    6.0540  131.3400 O.3    89  SER89      -0.2179
     15  N         41.1170    6.8520  128.6430 N.am   90  LEU90      -0.1963
     16  CA        41.5860    7.9720  127.8160 C.3    90  LEU90       0.1728
     17  C         41.3650    9.3270  128.4810 C.2    90  LEU90       0.2616
     18  O         41.4730   10.3740  127.8190 O.2    90  LEU90      -0.2715
     19  CB        40.8310    7.9740  126.4890 C.3    90  LEU90       0.0311
     20  CG        41.7490    7.8860  125.2700 C.3    90  LEU90       0.0022
     21  CD1       42.8920    6.8850  125.4460 C.3    90  LEU90       0.0001
     22  CD2       41.0110    7.4540  124.0010 C.3    90  LEU90       0.0001
     23  N         41.0710    9.2790  129.7690 N.am   91  SER91      -0.1950
     24  CA        40.8080   10.4980  130.5550 C.3    91  SER91       0.1924
     25  C         41.7440   10.6620  131.7740 C.2    91  SER91       0.2314
     26  O         41.6560   11.6470  132.5110 O.2    91  SER91      -0.2863
     27  CB        39.3930   10.5020  131.1430 C.3    91  SER91       0.2116
     28  OG        38.5160    9.7250  130.3520 O.3    91  SER91      -0.2180
     29  N         41.7670   14.8370  127.3090 N.3    97  ARG97      -0.1245
     30  CA        40.3960   14.6960  127.8640 C.3    97  ARG97       0.1563
     31  C         39.5330   15.8770  127.5790 C.2    97  ARG97       0.2260
     32  O         38.3400   15.7390  127.1420 O.2    97  ARG97      -0.2867
     33  CB        40.4240   14.3220  129.3240 C.3    97  ARG97       0.0307
     34  CG        39.0110   14.0580  129.8900 C.3    97  ARG97       0.0489
     35  CD        39.1660   13.7620  131.3510 C.3    97  ARG97       0.2205
     36  NE        37.8690   13.7860  132.0290 N.pl3  97  ARG97      -0.0865
     37  CZ        37.7520   13.3030  133.2760 C.cat  97  ARG97       0.5346
     38  NH1       38.7760   12.8580  133.9940 N.pl3  97  ARG97       0.1354
     39  NH2       36.5010   13.2320  133.7510 N.pl3  97  ARG97       0.1354
     40  N         38.3450   15.6920  123.9180 N.3   100  LEU100     -0.1231
     41  CA        37.3110   14.7360  123.6070 C.3   100  LEU100      0.1693
     42  C         35.9620   15.1480  124.1930 C.2   100  LEU100      0.2591
     43  O         34.9180   14.7940  123.6260 O.2   100  LEU100     -0.2718
     44  CB        37.6470   13.3490  124.1010 C.3   100  LEU100      0.0284
     45  CG        38.6910   12.5820  123.4710 C.3   100  LEU100      0.0019
     46  CD1       39.2950   11.5330  124.4120 C.3   100  LEU100      0.0001
     47  CD2       38.1130   11.8060  122.2800 C.3   100  LEU100      0.0001
     48  N         35.9950   15.8150  125.3340 N.am  101  GLU101     -0.1979
     49  CA        34.6610   16.0080  126.0320 C.3   101  GLU101      0.1602
     50  C         33.9580   17.2220  125.5130 C.2   101  GLU101      0.2287
     51  O         33.0590   17.7400  126.1670 O.2   101  GLU101     -0.2864
     52  CB        34.7760   15.9670  127.4960 C.3   101  GLU101      0.0415
     53  CG        35.4770   14.7430  128.1850 C.3   101  GLU101      0.1163
     54  CD        35.4040   14.8960  129.6580 C.2   101  GLU101      0.3649
     55  OE1       35.0390   16.1810  129.8850 O.co2 101  GLU101     -0.2457
     56  OE2       35.5110   14.1210  130.5610 O.co2 101  GLU101     -0.2457
     57  N         31.6380    9.5860  120.6320 N.3   106  VAL106     -0.1301
     58  CA        32.8620    9.7770  119.7030 C.3   106  VAL106      0.1246
     59  C         33.1250    8.4210  119.1970 C.3   106  VAL106      0.2009
     60  O         32.8260    7.4360  119.9740 O.3   106  VAL106     -0.2188
     61  CB        33.7910   10.4590  120.7150 C.3   106  VAL106      0.0202
     62  CG1       34.8240    9.6020  121.3160 C.3   106  VAL106      0.0016
     63  CG2       34.2420   11.7460  120.1250 C.3   106  VAL106      0.0016
     64  N         36.1270    6.1420  116.8490 N.3   108  PHE108     -0.1241
     65  CA        37.3940    6.2470  116.1280 C.3   108  PHE108      0.1605
     66  C         38.2130    4.9950  116.2830 C.2   108  PHE108      0.2264
     67  O         37.8920    4.1900  117.1770 O.2   108  PHE108     -0.2867
     68  CB        38.1020    7.5260  116.5820 C.3   108  PHE108      0.0534
     69  CG        38.2600    7.6810  118.0530 C.ar  108  PHE108     -0.0203
     70  CD1       39.0920    6.8500  118.7820 C.ar  108  PHE108     -0.0042
     71  CD2       37.6210    8.7050  118.7370 C.ar  108  PHE108     -0.0042
     72  CE1       39.2660    6.9790  120.1450 C.ar  108  PHE108     -0.0003
     73  CE2       37.7630    8.8370  120.1150 C.ar  108  PHE108     -0.0003
     74  CZ        38.5800    7.9560  120.8090 C.ar  108  PHE108     -0.0000
     75  N         42.1160    3.5640  117.1060 N.3   110  SER110     -0.1217
     76  CA        43.1990    4.1420  117.8910 C.3   110  SER110      0.1889
     77  C         44.5030    3.7170  117.3240 C.2   110  SER110      0.2288
     78  O         44.5950    2.5390  116.9230 O.2   110  SER110     -0.2866
     79  CB        43.1240    3.6740  119.3290 C.3   110  SER110      0.2089
     80  OG        41.8100    4.1030  119.7750 O.3   110  SER110     -0.2183
     81  N         48.2010    3.3870  118.8680 N.3   112  TYR112     -0.1298
     82  CA        49.0180    3.5750  120.0780 C.3   112  TYR112      0.1290
     83  C         50.4830    3.6890  119.7780 C.3   112  TYR112      0.2013
     84  O         50.9400    2.8940  118.8750 O.3   112  TYR112     -0.2188
     85  CB        48.8230    2.3210  120.9720 C.3   112  TYR112      0.0480
     86  CG        47.5270    2.4610  121.7330 C.ar  112  TYR112     -0.0204
     87  CD1       47.4110    3.0840  122.9440 C.ar  112  TYR112     -0.0009
     88  CD2       46.3630    1.9420  121.1550 C.ar  112  TYR112     -0.0009
     89  CE1       46.1840    3.2200  123.5980 C.ar  112  TYR112      0.0417
     90  CE2       45.1230    2.0530  121.7650 C.ar  112  TYR112      0.0417
     91  CZ        45.0580    2.6960  122.9980 C.ar  112  TYR112      0.1957
     92  OH        43.8390    2.7580  123.6230 O.3   112  TYR112     -0.2866
     93  N         54.3390   -5.8810  126.1830 N.3   134  ALA134     -0.1231
     94  CA        53.0670   -5.2950  126.6400 C.3   134  ALA134      0.1694
     95  C         51.9460   -6.2050  126.1730 C.2   134  ALA134      0.2592
     96  O         51.8420   -6.5080  124.9950 O.2   134  ALA134     -0.2718
     97  CB        52.8870   -3.9300  125.9750 C.3   134  ALA134      0.0304
     98  N         51.0920   -6.6640  127.0610 N.am  135  MET135     -0.1965
     99  CA        49.9980   -7.5780  126.6360 C.3   135  MET135      0.1736
    100  C         48.6610   -6.9140  126.7080 C.2   135  MET135      0.2616
    101  O         48.4390   -6.0250  127.5180 O.2   135  MET135     -0.2715
    102  CB        49.8410   -8.7400  127.6060 C.3   135  MET135      0.0427
    103  CG        50.4770   -9.9960  127.0940 C.3   135  MET135      0.0599
    104  SD        49.6660  -11.4430  127.7240 S.3   135  MET135     -0.1393
    105  CE        49.3840  -11.2510  129.4720 C.3   135  MET135      0.0692
    106  N         47.7510   -7.3400  125.8830 N.am  136  TYR136     -0.1974
    107  CA        46.4060   -6.7890  125.9880 C.3   136  TYR136      0.1639
    108  C         45.5980   -7.7590  126.8010 C.2   136  TYR136      0.2290
    109  O         45.3260   -8.8720  126.3780 O.2   136  TYR136     -0.2864
    110  CB        45.7060   -6.6460  124.6330 C.3   136  TYR136      0.0560
    111  CG        44.3330   -6.0070  124.8300 C.ar  136  TYR136     -0.0198
    112  CD1       44.1370   -5.1990  125.9510 C.ar  136  TYR136     -0.0009
    113  CD2       43.2840   -6.2260  123.9210 C.ar  136  TYR136     -0.0009
    114  CE1       42.8930   -4.6000  126.1760 C.ar  136  TYR136      0.0417
    115  CE2       42.0320   -5.6230  124.1470 C.ar  136  TYR136      0.0417
    116  CZ        41.8410   -4.8110  125.2770 C.ar  136  TYR136      0.1957
    117  OH        40.6340   -4.2260  125.5050 O.3   136  TYR136     -0.2866
    118  N         46.7050  -10.4070  121.8330 N.3   158  PRO158     -0.2102
    119  CA        47.7680   -9.7340  121.0380 C.3   158  PRO158      0.1504
    120  C         48.8410   -9.2220  121.9280 C.2   158  PRO158      0.2576
    121  O         48.4630   -8.5350  122.8690 O.2   158  PRO158     -0.2718
    122  CB        47.0260   -8.6520  120.2710 C.3   158  PRO158      0.0282
    123  CG        45.7990   -8.4410  120.9110 C.3   158  PRO158      0.0208
    124  CD        45.5300   -9.5640  121.9180 C.3   158  PRO158      0.0893
    125  N         50.0960   -9.5480  121.6460 N.am  159  SER159     -0.1938
    126  CA        51.1660   -8.8150  122.5210 C.3   159  SER159      0.2055
    127  C         52.2730   -8.3500  121.6210 C.2   159  SER159      0.2639
    128  O         52.4020   -8.8830  120.4700 O.2   159  SER159     -0.2714
    129  CB        51.3200   -9.5950  123.7220 C.3   159  SER159      0.2130
    130  OG        52.2690  -10.4700  123.8720 O.3   159  SER159     -0.2179
    131  N         52.9870   -7.2560  121.9000 N.am  160  VAL160     -0.2030
    132  CA        54.0570   -6.7110  121.1470 C.3   160  VAL160      0.1282
    133  C         55.3770   -6.7830  122.0220 C.3   160  VAL160      0.2035
    134  O         55.1830   -6.3140  123.2030 O.3   160  VAL160     -0.2185
    135  CB        54.0050   -5.1710  120.9030 C.3   160  VAL160      0.0226
    136  CG1       54.5170   -4.8300  119.5510 C.3   160  VAL160      0.0018
    137  CG2       52.8150   -4.4990  121.3520 C.3   160  VAL160      0.0018
    138  N         51.1580    0.1810  116.9780 N.3   170  PHE170     -0.1298
    139  CA        50.2020   -0.7380  116.3210 C.3   170  PHE170      0.1290
    140  C         48.8960   -0.0370  116.4060 C.3   170  PHE170      0.2013
    141  O         48.9780    1.0510  117.0000 O.3   170  PHE170     -0.2188
    142  CB        50.1480   -2.0310  117.0940 C.3   170  PHE170      0.0480
    143  CG        49.9040   -1.7640  118.5670 C.ar  170  PHE170     -0.0206
    144  CD1       50.9860   -1.5210  119.4120 C.ar  170  PHE170     -0.0042
    145  CD2       48.5980   -1.7460  119.0590 C.ar  170  PHE170     -0.0042
    146  CE1       50.7650   -1.2680  120.7660 C.ar  170  PHE170     -0.0003
    147  CE2       48.3740   -1.4940  120.4150 C.ar  170  PHE170     -0.0003
    148  CZ        49.4590   -1.2560  121.2690 C.ar  170  PHE170     -0.0000
    149  N         44.4810   -0.2420  116.9220 N.3   172  VAL172     -0.1245
    150  CA        43.3880   -1.1910  117.3520 C.3   172  VAL172      0.1561
    151  C         42.1090   -0.6430  116.7670 C.2   172  VAL172      0.2260
    152  O         41.9750    0.6050  116.7530 O.2   172  VAL172     -0.2867
    153  CB        43.3600   -1.1160  118.8600 C.3   172  VAL172      0.0252
    154  CG1       42.1690   -1.8360  119.4670 C.3   172  VAL172      0.0019
    155  CG2       44.6290   -1.7020  119.4680 C.3   172  VAL172      0.0019
    156  N         36.9070   -0.7130  119.4600 N.3   175  VAL175     -0.1301
    157  CA        36.4230   -1.7820  120.2390 C.3   175  VAL175      0.1246
    158  C         35.2100   -1.5170  121.1110 C.3   175  VAL175      0.2009
    159  O         34.9200   -2.4330  121.9740 O.3   175  VAL175     -0.2188
    160  CB        37.5120   -2.4250  121.0770 C.3   175  VAL175      0.0202
    161  CG1       38.5180   -3.1790  120.2020 C.3   175  VAL175      0.0016
    162  CG2       38.2930   -1.4330  121.9200 C.3   175  VAL175      0.0016
    163  N         31.5200    5.5760  121.5400 N.3   181  TYR181     -0.1227
    164  CA        31.9570    5.5200  122.9640 C.3   181  TYR181      0.1736
    165  C         31.1800    6.6050  123.6840 C.2   181  TYR181      0.2595
    166  O         31.0780    7.6880  122.9810 O.2   181  TYR181     -0.2718
    167  CB        33.4020    5.6750  122.4510 C.3   181  TYR181      0.0548
    168  CG        34.4500    4.7030  122.0160 C.ar  181  TYR181     -0.0200
    169  CD1       34.4830    3.3810  122.4240 C.ar  181  TYR181     -0.0009
    170  CD2       35.4920    5.1460  121.2260 C.ar  181  TYR181     -0.0009
    171  CE1       35.4810    2.5010  122.0690 C.ar  181  TYR181      0.0417
    172  CE2       36.5220    4.2790  120.8360 C.ar  181  TYR181      0.0417
    173  CZ        36.4740    2.9780  121.2630 C.ar  181  TYR181      0.1957
    174  OH        37.4620    2.1760  120.8070 O.3   181  TYR181     -0.2866
    175  N         30.6660    6.4330  124.8720 N.am  182  ASN182     -0.1960
    176  CA        29.9510    7.6020  125.4990 C.3   182  ASN182      0.1819
    177  C         31.0300    8.4730  126.1880 C.2   182  ASN182      0.2618
    178  O         31.6970    7.8590  127.1010 O.2   182  ASN182     -0.2715
    179  CB        28.9980    7.1430  126.5390 C.3   182  ASN182      0.1195
    180  CG        27.7080    6.6100  126.1220 C.2   182  ASN182      0.2630
    181  OD1       26.6250    6.9980  126.5710 O.2   182  ASN182     -0.2716
    182  ND2       27.7940    5.6110  125.2390 N.am  182  ASN182     -0.0877
    183  N         31.1490    9.7120  125.8450 N.am  183  CYS183     -0.2021
    184  CA        31.9790   10.6290  126.5970 C.3   183  CYS183      0.1398
    185  C         31.2530   10.9420  127.9290 C.3   183  CYS183      0.2045
    186  O         32.0120   11.3960  128.8540 O.3   183  CYS183     -0.2185
    187  CB        32.2660   11.9560  125.9600 C.3   183  CYS183      0.0930
    188  SG        33.6830   11.7780  124.8930 S.3   183  CYS183     -0.0802
    189  N         30.3690    6.6270  133.7320 N.3   199  ILE199     -0.1245
    190  CA        30.6870    5.8380  132.5240 C.3   199  ILE199      0.1561
    191  C         31.6670    4.7260  132.8970 C.2   199  ILE199      0.2260
    192  O         31.7770    3.6960  132.2280 O.2   199  ILE199     -0.2867
    193  CB        31.1670    6.8310  131.4560 C.3   199  ILE199      0.0252
    194  CG1       32.6130    6.6320  131.0500 C.3   199  ILE199      0.0019
    195  CG2       31.0450    8.2660  131.9560 C.3   199  ILE199      0.0019
    196  CD1       33.4420    7.9190  131.1950 C.3   199  ILE199      0.0001
    197  N         32.8050    1.9760  129.9780 N.3   203  ASN203     -0.1240
    198  CA        34.0710    1.7990  129.2050 C.3   203  ASN203      0.1653
    199  C         34.9460    0.7180  129.8060 C.2   203  ASN203      0.2266
    200  O         36.1210    0.9640  130.1640 O.2   203  ASN203     -0.2867
    201  CB        34.8190    3.1270  129.0500 C.3   203  ASN203      0.1155
    202  CG        35.6110    3.5940  130.2700 C.2   203  ASN203      0.2627
    203  OD1       36.2990    4.6160  130.1890 O.2   203  ASN203     -0.2716
    204  ND2       35.5520    2.9270  131.4010 N.am  203  ASN203     -0.0877
    205  N         36.7740   -1.5780  129.0920 N.3   205  MET205     -0.1245
    206  CA        37.6990   -1.8950  128.0560 C.3   205  MET205      0.1570
    207  C         38.6850   -2.9730  128.4760 C.2   205  MET205      0.2261
    208  O         39.1740   -3.7320  127.6370 O.2   205  MET205     -0.2867
    209  CB        38.4550   -0.6420  127.6630 C.3   205  MET205      0.0387
    210  CG        38.4830   -0.4400  126.1500 C.3   205  MET205      0.0595
    211  SD        36.9050    0.0200  125.4660 S.3   205  MET205     -0.1393
    212  CE        36.1980    1.3500  126.4140 C.3   205  MET205      0.0692
    213  N         45.9040   -3.3050  130.1990 N.3   208  MET208     -0.1245
    214  CA        47.0650   -3.6620  129.3720 C.3   208  MET208      0.1570
    215  C         48.2670   -3.8920  130.2830 C.2   208  MET208      0.2261
    216  O         48.5770   -3.0780  131.1450 O.2   208  MET208     -0.2867
    217  CB        47.2910   -2.5140  128.3860 C.3   208  MET208      0.0387
    218  CG        48.7250   -2.3820  127.9030 C.3   208  MET208      0.0595
    219  SD        48.8300   -1.6530  126.2820 S.3   208  MET208     -0.1393
    220  CE        48.7710    0.1220  126.3990 C.3   208  MET208      0.0692
@<TRIPOS>BOND
     1    65    66    1
     2    65    68    1
     3    65    64    1
     4    66    67    2
     5   139   140    1
     6   139   138    1
     7   139   142    1
     8   140   141    1
     9    68    69    1
    10   152   151    2
    11   151   150    1
    12   149   150    1
    13    78    77    2
    14   142   143    1
    15    75    76    1
    16    77    76    1
    17   150   153    1
    18    76    79    1
    19    69    71   ar
    20    69    70   ar
    21   143   145   ar
    22   143   144   ar
    23    71    73   ar
    24    70    72   ar
    25   153   154    1
    26   153   155    1
    27    81    82    1
    28    84    83    1
    29   145   147   ar
    30    59    58    1
    31    59    60    1
    32    79    80    1
    33   144   146   ar
    34   156   157    1
    35   136   135    1
    36    58    57    1
    37    58    61    1
    38    83    82    1
    39    82    85    1
    40    73    74   ar
    41    63    61    1
    42    72    74   ar
    43   161   160    1
    44   157   160    1
    45   157   158    1
    46   122   123    1
    47   122   119    1
    48   147   148   ar
    49   128   127    2
    50    61    62    1
    51   146   148   ar
    52   174   173    1
    53   172   170   ar
    54   172   173   ar
    55   135   132    1
    56   135   137    1
    57   123   124    1
    58    85    86    1
    59   119   118    1
    60   119   120    1
    61   160   162    1
    62   158   159    1
    63   132   131    1
    64   132   133    1
    65    88    86   ar
    66    88    90   ar
    67   170   168   ar
    68   173   171   ar
    69   163   164    1
    70   127   131   am
    71   127   126    1
    72   125   120   am
    73   125   126    1
    74    86    87   ar
    75    90    91   ar
    76   118   124    1
    77   120   121    2
    78   168   169   ar
    79   168   167    1
    80   133   134    1
    81   171   169   ar
    82    47    45    1
    83   167   164    1
    84   126   129    1
    85    87    89   ar
    86   164   165    1
    87   166   165    2
    88    91    89   ar
    89    91    92    1
    90    45    44    1
    91    45    46    1
    92    41    40    1
    93    41    44    1
    94    41    42    1
    95    43    42    2
    96   165   175   am
    97   129   130    1
    98   113   115   ar
    99   113   111   ar
   100    22    20    1
   101   115   116   ar
   102    42    48   am
   103   110   111    1
   104   110   107    1
   105   111   112   ar
   106   175   176    1
   107   188   187    1
   108    96    95    2
   109   182   180   am
   110    20    21    1
   111    20    19    1
   112   116   117    1
   113   116   114   ar
   114    48    49    1
   115   211   210    1
   116   211   212    1
   117   176   177    1
   118   176   179    1
   119    50    49    1
   120    50    51    2
   121   183   177   am
   122   183   184    1
   123   106   107    1
   124   106   100   am
   125   112   114   ar
   126   187   184    1
   127    97    94    1
   128   107   108    1
   129    49    52    1
   130   180   179    1
   131   180   181    2
   132   210   209    1
   133    95    94    1
   134    95    98   am
   135    93    94    1
   136   177   178    2
   137   219   220    1
   138   219   218    1
   139   109   108    2
   140    19    16    1
   141   184   185    1
   142    99   100    1
   143    99    98    1
   144    99   102    1
   145   100   101    2
   146     8     6    1
   147   103   102    1
   148   103   104    1
   149     7     5    1
   150    32    31    2
   151    29    30    1
   152    52    53    1
   153    31    30    1
   154   208   207    2
   155   209   206    1
   156   104   105    1
   157    16    17    1
   158    16    15    1
   159    18    17    2
   160    30    33    1
   161   218   217    1
   162   185   186    1
   163   206   207    1
   164   206   205    1
   165    53    54    1
   166     6     5    1
   167   217   214    1
   168     5     2    1
   169    12    11    2
   170    17    23   am
   171    15    11   am
   172    11    10    1
   173   201   198    1
   174   201   202    1
   175   198   199    1
   176   198   197    1
   177    33    34    1
   178   214   213    1
   179   214   215    1
   180     9    10    1
   181     9     3   am
   182     2     3    1
   183     2     1    1
   184    10    13    1
   185    54    55   ar
   186    54    56   ar
   187    23    24    1
   188   199   200    2
   189     3     4    2
   190    34    35    1
   191   203   202    2
   192   202   204   am
   193   215   216    2
   194    28    27    1
   195    24    27    1
   196    24    25    1
   197   194   196    1
   198   194   193    1
   199    13    14    1
   200    35    36    1
   201   193   195    1
   202   193   190    1
   203    25    26    2
   204    36    37    2
   205   192   191    2
   206   190   191    1
   207   190   189    1
   208    37    39    1
   209    37    38    1
