@<TRIPOS>MOLECULE
tmp/1rusA00.pdb
 97 92 0 0 0
SMALL
GASTEIGER

@<TRIPOS>ATOM
      1  N         32.7220   18.7080   41.6360 N.3   152  ILE152     -0.1245
      2  CA        33.7330   19.2030   40.7070 C.3   152  ILE152      0.1561
      3  C         33.6630   20.7100   40.9680 C.2   152  ILE152      0.2260
      4  O         32.6120   21.2450   41.3470 O.2   152  ILE152     -0.2867
      5  CB        33.3140   18.8960   39.2680 C.3   152  ILE152      0.0252
      6  CG1       33.0240   17.4190   39.0230 C.3   152  ILE152      0.0019
      7  CG2       34.3730   19.2940   38.2390 C.3   152  ILE152      0.0019
      8  CD1       31.7570   17.1930   38.1930 C.3   152  ILE152      0.0001
      9  N         37.1560   16.9440   43.3160 N.3   179  LYS179     -0.1245
     10  CA        38.0050   16.4850   42.2130 C.3   179  LYS179      0.1561
     11  C         38.2180   17.6080   41.1970 C.2   179  LYS179      0.2260
     12  O         37.2600   18.2460   40.7400 O.2   179  LYS179     -0.2867
     13  CB        37.3460   15.2980   41.4950 C.3   179  LYS179      0.0271
     14  CG        36.3370   15.7250   40.4240 C.3   179  LYS179      0.0035
     15  CD        36.1860   14.7000   39.2960 C.3   179  LYS179      0.0206
     16  CE        36.9320   15.1000   38.0190 C.3   179  LYS179      0.1093
     17  NZ        36.0480   15.6600   36.9860 N.3   179  LYS179     -0.1314
     18  N         38.5870   19.5360   37.9720 N.3   181  ASP181     -0.1225
     19  CA        37.8890   19.2550   36.7150 C.3   181  ASP181      0.1805
     20  C         38.9240   18.8310   35.6770 C.2   181  ASP181      0.2597
     21  O         40.1370   18.9000   35.9280 O.2   181  ASP181     -0.2718
     22  CB        37.0530   20.4090   36.1950 C.3   181  ASP181      0.1424
     23  CG        35.9320   19.8820   35.2790 C.2   181  ASP181      0.3668
     24  OD1       35.2700   20.6880   34.5240 O.co2 181  ASP181     -0.2456
     25  OD2       35.6530   18.6180   35.2640 O.co2 181  ASP181     -0.2456
     26  N         38.3920   18.4170   34.5470 N.am  182  GLU182     -0.1979
     27  CA        39.1710   17.7940   33.4590 C.3   182  GLU182      0.1602
     28  C         40.5110   18.5100   33.1200 C.2   182  GLU182      0.2287
     29  O         41.5940   17.9220   33.2350 O.2   182  GLU182     -0.2864
     30  CB        38.3010   17.5930   32.1760 C.3   182  GLU182      0.0415
     31  CG        37.7950   18.8570   31.4590 C.3   182  GLU182      0.1163
     32  CD        37.4780   18.6030   29.9580 C.2   182  GLU182      0.3649
     33  OE1       37.5600   17.4110   29.4580 O.co2 182  GLU182     -0.2457
     34  OE2       37.1320   19.5790   29.1840 O.co2 182  GLU182     -0.2457
     35  N         39.2130    9.4290   34.5970 N.3   275  HIS275     -0.1226
     36  CA        38.2280   10.4240   34.0320 C.3   275  HIS275      0.1752
     37  C         37.7230    9.8160   32.7010 C.2   275  HIS275      0.2595
     38  O         38.4500    9.3650   31.8580 O.2   275  HIS275     -0.2718
     39  CB        38.9040   11.7610   33.7450 C.3   275  HIS275      0.0759
     40  CG        37.8810   12.8870   33.5570 C.ar  275  HIS275      0.0818
     41  ND1       36.6340   12.6550   32.9800 N.ar  275  HIS275     -0.2268
     42  CD2       37.9120   14.2120   33.8620 C.ar  275  HIS275      0.1154
     43  CE1       35.9730   13.7980   32.9510 C.ar  275  HIS275      0.1986
     44  NE2       36.7210   14.7350   33.4730 N.ar  275  HIS275     -0.2212
     45  N         36.5090    9.7040   32.4180 N.am  276  ARG276     -0.1980
     46  CA        36.1350    9.3220   31.0390 C.3   276  ARG276      0.1597
     47  C         35.8650   10.6970   30.3400 C.2   276  ARG276      0.2287
     48  O         34.7050   11.0860   30.1400 O.2   276  ARG276     -0.2864
     49  CB        34.9110    8.3850   31.0200 C.3   276  ARG276      0.0334
     50  CG        33.6620    8.9240   31.7530 C.3   276  ARG276      0.0492
     51  CD        32.5120    9.3280   30.8120 C.3   276  ARG276      0.2205
     52  NE        31.3440    8.3850   30.7420 N.pl3 276  ARG276     -0.0865
     53  CZ        31.3690    7.0280   30.6680 C.cat 276  ARG276      0.5346
     54  NH1       32.5150    6.3330   30.6250 N.pl3 276  ARG276      0.1354
     55  NH2       30.2600    6.2690   30.6470 N.pl3 276  ARG276      0.1354
     56  N         34.4650    7.2470   36.2770 N.3   309  HIS309     -0.1226
     57  CA        33.2550    7.9940   35.8310 C.3   309  HIS309      0.1752
     58  C         32.4370    6.8690   35.0860 C.2   309  HIS309      0.2597
     59  O         32.9370    6.2670   34.1190 O.2   309  HIS309     -0.2718
     60  CB        33.8030    9.3680   35.3240 C.3   309  HIS309      0.0759
     61  CG        34.2330   10.4910   36.3100 C.ar  309  HIS309      0.0818
     62  ND1       33.7280   11.7930   36.1850 N.ar  309  HIS309     -0.2268
     63  CD2       35.0910   10.5450   37.3720 C.ar  309  HIS309      0.1154
     64  CE1       34.2690   12.5510   37.1220 C.ar  309  HIS309      0.1986
     65  NE2       35.0830   11.8250   37.8360 N.ar  309  HIS309     -0.2212
     66  N         31.1460    6.5430   35.4900 N.am  310  THR310     -0.1939
     67  CA        30.3610    5.3670   34.8620 C.3   310  THR310      0.2028
     68  C         28.9830    5.7010   34.2660 C.2   310  THR310      0.2643
     69  O         28.5370    5.0400   33.2920 O.2   310  THR310     -0.2714
     70  CB        30.0810    4.2810   35.9330 C.3   310  THR310      0.1808
     71  OG1       30.9560    3.1770   35.7630 O.3   310  THR310     -0.2208
     72  CG2       28.6510    3.7180   35.8880 C.3   310  THR310      0.0379
     73  N         28.1830    6.5200   34.8600 N.am  311  GLY311     -0.1939
     74  CA        26.8450    6.7670   34.3060 C.3   311  GLY311      0.2014
     75  C         25.9210    7.4930   35.2670 C.2   311  GLY311      0.2639
     76  O         26.1010    7.4260   36.5000 O.2   311  GLY311     -0.2714
     77  N         24.9720    8.1320   34.6010 N.am  312  THR312     -0.1950
     78  CA        23.9380    8.9550   35.2060 C.3   312  THR312      0.1897
     79  C         22.5210    8.5220   34.9160 C.2   312  THR312      0.2313
     80  O         21.8180    8.0030   35.8070 O.2   312  THR312     -0.2863
     81  CB        23.9470   10.3750   34.6310 C.3   312  THR312      0.1794
     82  OG1       25.2300   10.7030   34.1430 O.3   312  THR312     -0.2208
     83  CG2       23.5460   11.4430   35.6460 C.3   312  THR312      0.0378
     84  N         31.7350    5.7220   39.7470 N.3   346  ILE346     -0.1245
     85  CA        31.6670    7.1100   40.1570 C.3   346  ILE346      0.1561
     86  C         30.5320    7.6750   39.3550 C.2   346  ILE346      0.2260
     87  O         30.6680    7.9690   38.1610 O.2   346  ILE346     -0.2867
     88  CB        33.0120    7.8180   39.8930 C.3   346  ILE346      0.0252
     89  CG1       34.0730    7.4630   40.9480 C.3   346  ILE346      0.0019
     90  CG2       32.9080    9.3520   39.9080 C.3   346  ILE346      0.0019
     91  CD1       35.5070    7.7750   40.5100 C.3   346  ILE346      0.0001
     92  N         27.8060   10.2850   38.3210 N.3   348  SER348     -0.1217
     93  CA        27.6990   11.6880   38.0290 C.3   348  SER348      0.1889
     94  C         26.2240   11.9720   37.9280 C.2   348  SER348      0.2288
     95  O         25.4530   11.1360   37.4510 O.2   348  SER348     -0.2866
     96  CB        28.4160   11.9380   36.6920 C.3   348  SER348      0.2089
     97  OG        28.8230   13.2870   36.5760 O.3   348  SER348     -0.2183
@<TRIPOS>BOND
     1    34    32   ar
     2    33    32   ar
     3    32    31    1
     4    48    47    2
     5    47    46    1
     6    54    53    1
     7    55    53    1
     8    53    52    2
     9    52    51    1
    10    51    50    1
    11    49    46    1
    12    49    50    1
    13    46    45    1
    14    31    30    1
    15    38    37    2
    16    30    27    1
    17    45    37   am
    18    37    36    1
    19    43    41   ar
    20    43    44   ar
    21    41    40   ar
    22    28    29    2
    23    28    27    1
    24    69    68    2
    25    27    26    1
    26    44    42   ar
    27    40    39    1
    28    40    42   ar
    29    39    36    1
    30    36    35    1
    31    59    58    2
    32    82    81    1
    33    68    73   am
    34    68    67    1
    35    74    73    1
    36    74    75    1
    37    24    23   ar
    38    26    20   am
    39    77    78    1
    40    77    75   am
    41    81    78    1
    42    81    83    1
    43    67    66    1
    44    67    70    1
    45    79    78    1
    46    79    80    2
    47    58    66   am
    48    58    57    1
    49    25    23   ar
    50    75    76    2
    51    23    22    1
    52    60    57    1
    53    60    61    1
    54    20    21    2
    55    20    19    1
    56    71    70    1
    57    57    56    1
    58    72    70    1
    59    62    61   ar
    60    62    64   ar
    61    22    19    1
    62    61    63   ar
    63    97    96    1
    64    96    93    1
    65    19    18    1
    66    17    16    1
    67    64    65   ar
    68    63    65   ar
    69    95    94    2
    70    94    93    1
    71    16    15    1
    72    93    92    1
    73    87    86    2
    74     8     6    1
    75     7     5    1
    76     6     5    1
    77     5     2    1
    78    15    14    1
    79    86    85    1
    80    84    85    1
    81    88    90    1
    82    88    85    1
    83    88    89    1
    84    14    13    1
    85    91    89    1
    86     2     3    1
    87     2     1    1
    88    12    11    2
    89     3     4    2
    90    11    10    1
    91    13    10    1
    92    10     9    1
