@<TRIPOS>MOLECULE
tmp/1rv1C01.pdb
 142 137 0 0 0
SMALL
GASTEIGER

@<TRIPOS>ATOM
      1  N         12.0830   10.7010    2.6250 N.3    30  LEU30      -0.1245
      2  CA        12.3850   11.0480    4.0080 C.3    30  LEU30       0.1561
      3  C         13.7500   10.5050    4.4320 C.2    30  LEU30       0.2260
      4  O         14.5020   11.1830    5.1260 O.2    30  LEU30      -0.2867
      5  CB        11.2940   10.5060    4.9330 C.3    30  LEU30       0.0270
      6  CG         9.8880   11.0520    4.6780 C.3    30  LEU30       0.0019
      7  CD1        8.8700   10.2080    5.4200 C.3    30  LEU30       0.0001
      8  CD2        9.8100   12.5050    5.1060 C.3    30  LEU30       0.0001
      9  N         16.1990   12.8820    2.6890 N.3    33  LEU33      -0.1231
     10  CA        16.1270   14.2210    3.2500 C.3    33  LEU33       0.1693
     11  C         16.8250   14.1850    4.6060 C.2    33  LEU33       0.2593
     12  O         17.4960   15.1340    5.0020 O.2    33  LEU33      -0.2718
     13  CB        14.6720   14.6450    3.4370 C.3    33  LEU33       0.0284
     14  CG        13.8720   15.0470    2.1980 C.3    33  LEU33       0.0019
     15  CD1       12.4550   15.4500    2.6060 C.3    33  LEU33       0.0001
     16  CD2       14.5700   16.2030    1.5020 C.3    33  LEU33       0.0001
     17  N         16.6650   13.0710    5.3110 N.am   34  GLY34      -0.1942
     18  CA        17.2890   12.9240    6.6110 C.3    34  GLY34       0.2014
     19  C         18.7910   12.8430    6.4720 C.2    34  GLY34       0.2638
     20  O         19.5320   13.3640    7.3020 O.2    34  GLY34      -0.2714
     21  N         19.2450   12.1810    5.4160 N.am   35  GLN35      -0.1977
     22  CA        20.6730   12.0450    5.1660 C.3    35  GLN35       0.1601
     23  C         21.2690   13.3860    4.7710 C.2    35  GLN35       0.2287
     24  O         22.3450   13.7590    5.2270 O.2    35  GLN35      -0.2864
     25  CB        20.9210   11.0020    4.0740 C.3    35  GLN35       0.0394
     26  CG        20.7760    9.5850    4.5810 C.3    35  GLN35       0.0908
     27  CD        21.6440    9.3330    5.8070 C.2    35  GLN35       0.2608
     28  OE1       21.6150   10.1060    6.7710 O.2    35  GLN35      -0.2717
     29  NE2       22.4180    8.2490    5.7810 N.am   35  GLN35      -0.0878
     30  N         20.1560   16.5370    5.4440 N.3    37  ILE37      -0.1231
     31  CA        20.2460   17.3550    6.6490 C.3    37  ILE37       0.1692
     32  C         21.3940   16.9720    7.5760 C.2    37  ILE37       0.2591
     33  O         22.2030   17.8150    7.9420 O.2    37  ILE37      -0.2718
     34  CB        18.9330   17.2980    7.4600 C.3    37  ILE37       0.0266
     35  CG1       17.8250   18.0260    6.7000 C.3    37  ILE37       0.0019
     36  CG2       19.1410   17.9100    8.8380 C.3    37  ILE37       0.0020
     37  CD1       16.4630   17.9090    7.3340 C.3    37  ILE37       0.0001
     38  N         21.4670   15.7050    7.9580 N.am   38  MET38      -0.1979
     39  CA        22.5200   15.2610    8.8580 C.3    38  MET38       0.1605
     40  C         23.9260   15.5810    8.3730 C.2    38  MET38       0.2287
     41  O         24.5830   16.4760    8.9060 O.2    38  MET38      -0.2864
     42  CB        22.3990   13.7600    9.1240 C.3    38  MET38       0.0413
     43  CG        21.2340   13.3930   10.0240 C.3    38  MET38       0.0598
     44  SD        21.2000   14.3960   11.5250 S.3    38  MET38      -0.1393
     45  CE        22.3050   13.4770   12.5810 C.3    38  MET38       0.0692
     46  N         21.4080   21.0110   11.5580 N.3    43  TYR43      -0.1241
     47  CA        20.6780   20.9020   12.8080 C.3    43  TYR43       0.1605
     48  C         21.4060   21.5480   13.9780 C.2    43  TYR43       0.2264
     49  O         22.6380   21.5240   14.0590 O.2    43  TYR43      -0.2867
     50  CB        20.4390   19.4290   13.1180 C.3    43  TYR43       0.0534
     51  CG        21.7230   18.6500   13.2330 C.ar   43  TYR43      -0.0201
     52  CD1       22.3150   18.4270   14.4710 C.ar   43  TYR43      -0.0009
     53  CD2       22.3670   18.1670   12.0980 C.ar   43  TYR43      -0.0009
     54  CE1       23.5230   17.7400   14.5800 C.ar   43  TYR43       0.0417
     55  CE2       23.5780   17.4780   12.1930 C.ar   43  TYR43       0.0417
     56  CZ        24.1500   17.2690   13.4390 C.ar   43  TYR43       0.1957
     57  OH        25.3430   16.5960   13.5440 O.3    43  TYR43      -0.2866
     58  N         19.4580   18.3110   18.1080 N.3    48  GLN48      -0.1231
     59  CA        19.4320   17.7810   16.7550 C.3    48  GLN48       0.1698
     60  C         18.0510   17.8220   16.1050 C.2    48  GLN48       0.2592
     61  O         17.9380   17.7270   14.8860 O.2    48  GLN48      -0.2718
     62  CB        19.9810   16.3490   16.7340 C.3    48  GLN48       0.0381
     63  CG        21.4460   16.2450   17.1530 C.3    48  GLN48       0.0905
     64  CD        22.0100   14.8340   17.0230 C.2    48  GLN48       0.2608
     65  OE1       21.4250   13.8690   17.5210 O.2    48  GLN48      -0.2717
     66  NE2       23.1590   14.7120   16.3600 N.am   48  GLN48      -0.0878
     67  N         17.0040   17.9870   16.9060 N.am   49  HIS49      -0.1976
     68  CA        15.6570   18.0260   16.3600 C.3    49  HIS49       0.1656
     69  C         15.3120   19.3710   15.7200 C.2    49  HIS49       0.2291
     70  O         14.2630   19.5170   15.0950 O.2    49  HIS49      -0.2864
     71  CB        14.6370   17.6680   17.4480 C.3    49  HIS49       0.0771
     72  CG        14.2820   18.8050   18.3530 C.ar   49  HIS49       0.0820
     73  ND1       13.3140   19.7330   18.0350 N.ar   49  HIS49      -0.2267
     74  CD2       14.7630   19.1640   19.5650 C.ar   49  HIS49       0.1154
     75  CE1       13.2110   20.6130   19.0140 C.ar   49  HIS49       0.1986
     76  NE2       14.0800   20.2910   19.9550 N.ar   49  HIS49      -0.2212
     77  N         16.0960   22.1320   12.9010 N.3    51  VAL51      -0.1245
     78  CA        16.7420   22.2540   11.5970 C.3    51  VAL51       0.1561
     79  C         16.8260   23.6970   11.0950 C.2    51  VAL51       0.2260
     80  O         15.8070   24.3550   10.8890 O.2    51  VAL51      -0.2867
     81  CB        16.0040   21.4060   10.5280 C.3    51  VAL51       0.0252
     82  CG1       16.7900   21.4010    9.2300 C.3    51  VAL51       0.0019
     83  CG2       15.8070   19.9910   11.0330 C.3    51  VAL51       0.0019
     84  N         11.2440   24.6740    1.0340 N.3    62  PHE62      -0.1241
     85  CA        10.2440   24.6770    2.0900 C.3    62  PHE62       0.1605
     86  C          9.7180   26.0720    2.3790 C.2    62  PHE62       0.2264
     87  O          8.5850   26.2340    2.8430 O.2    62  PHE62      -0.2867
     88  CB        10.8220   24.0400    3.3630 C.3    62  PHE62       0.0534
     89  CG        11.0380   22.5430    3.2620 C.ar   62  PHE62      -0.0203
     90  CD1       10.5280   21.8150    2.1830 C.ar   62  PHE62      -0.0042
     91  CD2       11.7300   21.8600    4.2590 C.ar   62  PHE62      -0.0042
     92  CE1       10.7060   20.4350    2.0990 C.ar   62  PHE62      -0.0003
     93  CE2       11.9150   20.4730    4.1870 C.ar   62  PHE62      -0.0003
     94  CZ        11.4010   19.7600    3.1020 C.ar   62  PHE62      -0.0000
     95  N         13.0500   24.7970   11.0700 N.3    67  PHE67      -0.1241
     96  CA        11.8920   23.9880   11.4420 C.3    67  PHE67       0.1605
     97  C         12.3140   22.8100   12.3130 C.2    67  PHE67       0.2264
     98  O         13.4920   22.4570   12.3650 O.2    67  PHE67      -0.2867
     99  CB        11.1820   23.4700   10.1820 C.3    67  PHE67       0.0534
    100  CG        11.9480   22.4110    9.4440 C.ar   67  PHE67      -0.0203
    101  CD1       11.8260   21.0680    9.8020 C.ar   67  PHE67      -0.0042
    102  CD2       12.8030   22.7510    8.4030 C.ar   67  PHE67      -0.0042
    103  CE1       12.5480   20.0780    9.1340 C.ar   67  PHE67      -0.0003
    104  CE2       13.5320   21.7720    7.7260 C.ar   67  PHE67      -0.0003
    105  CZ        13.4050   20.4300    8.0910 C.ar   67  PHE67      -0.0000
    106  N         11.9090   18.6990   13.3780 N.3    69  VAL69      -0.1245
    107  CA        11.5900   17.4080   12.7930 C.3    69  VAL69       0.1561
    108  C         10.3210   16.8390   13.4090 C.2    69  VAL69       0.2260
    109  O          9.8000   15.8280   12.9410 O.2    69  VAL69      -0.2867
    110  CB        12.7370   16.4010   12.9830 C.3    69  VAL69       0.0252
    111  CG1       13.9860   16.9160   12.3030 C.3    69  VAL69       0.0019
    112  CG2       12.9840   16.1670   14.4550 C.3    69  VAL69       0.0019
    113  N          5.4800   17.3150   11.8460 N.3    72  HIS72      -0.1241
    114  CA         5.1950   16.3360   10.8100 C.3    72  HIS72       0.1621
    115  C          4.3510   16.7770    9.6160 C.2    72  HIS72       0.2264
    116  O          4.8120   16.6750    8.4820 O.2    72  HIS72      -0.2867
    117  CB         4.6140   15.0830   11.4670 C.3    72  HIS72       0.0745
    118  CG         5.6020   14.3560   12.3260 C.ar   72  HIS72       0.0817
    119  ND1        5.2580   13.7640   13.5230 N.ar   72  HIS72      -0.2268
    120  CD2        6.9280   14.1340   12.1640 C.ar   72  HIS72       0.1154
    121  CE1        6.3300   13.2120   14.0620 C.ar   72  HIS72       0.1986
    122  NE2        7.3570   13.4220   13.2580 N.ar   72  HIS72      -0.2212
    123  N          6.1950   19.1900    7.5450 N.3    75  ILE75      -0.1231
    124  CA         7.2140   18.5850    6.6920 C.3    75  ILE75       0.1692
    125  C          6.5710   17.8430    5.5220 C.2    75  ILE75       0.2592
    126  O          7.2040   17.6250    4.4930 O.2    75  ILE75      -0.2718
    127  CB         8.1330   17.6270    7.4960 C.3    75  ILE75       0.0266
    128  CG1        9.0220   18.4460    8.4380 C.3    75  ILE75       0.0019
    129  CG2        9.0050   16.8000    6.5550 C.3    75  ILE75       0.0020
    130  CD1        9.9660   17.6230    9.2940 C.3    75  ILE75       0.0001
    131  N          5.3140   17.4470    5.6890 N.am   76  TYR76      -0.1976
    132  CA         4.5820   16.7720    4.6220 C.3    76  TYR76       0.1639
    133  C          4.0640   17.8910    3.7170 C.2    76  TYR76       0.2290
    134  O          4.2860   17.8830    2.5080 O.2    76  TYR76      -0.2864
    135  CB         3.4170   15.9450    5.1960 C.3    76  TYR76       0.0560
    136  CG         3.8070   14.5320    5.6020 C.ar   76  TYR76      -0.0198
    137  CD1        3.4610   14.0150    6.8520 C.ar   76  TYR76      -0.0009
    138  CD2        4.5220   13.7110    4.7270 C.ar   76  TYR76      -0.0009
    139  CE1        3.8210   12.7080    7.2220 C.ar   76  TYR76       0.0417
    140  CE2        4.8870   12.4130    5.0840 C.ar   76  TYR76       0.0417
    141  CZ         4.5360   11.9160    6.3280 C.ar   76  TYR76       0.1957
    142  OH         4.9130   10.6330    6.6660 O.3    76  TYR76      -0.2866
@<TRIPOS>BOND
     1    84    85    1
     2    16    14    1
     3    85    86    1
     4    85    88    1
     5    92    90   ar
     6    92    94   ar
     7    90    89   ar
     8    14    15    1
     9    14    13    1
    10    86    87    2
    11   134   133    2
    12     1     2    1
    13     9    10    1
    14    94    93   ar
    15    10    13    1
    16    10    11    1
    17    89    88    1
    18    89    91   ar
    19   133   132    1
    20     2     3    1
    21     2     5    1
    22    25    26    1
    23    25    22    1
    24    93    91   ar
    25     3     4    2
    26   126   125    2
    27    26    27    1
    28    11    12    2
    29    11    17   am
    30   132   135    1
    31   132   131    1
    32     6     5    1
    33     6     8    1
    34     6     7    1
    35   138   140   ar
    36   138   136   ar
    37    23    22    1
    38    23    24    2
    39   140   141   ar
    40    22    21    1
    41   135   136    1
    42    17    18    1
    43    21    19   am
    44    30    31    1
    45   125   131   am
    46   125   124    1
    47   136   137   ar
    48    29    27   am
    49    27    28    2
    50   141   142    1
    51   141   139   ar
    52    19    18    1
    53    19    20    2
    54   129   127    1
    55    31    34    1
    56    31    32    1
    57   124   127    1
    58   124   123    1
    59    35    37    1
    60    35    34    1
    61   137   139   ar
    62    34    36    1
    63   127   128    1
    64    32    33    2
    65    32    38   am
    66   104   105   ar
    67   104   102   ar
    68    38    39    1
    69   105   103   ar
    70    40    39    1
    71    40    41    2
    72   102   100   ar
    73   128   130    1
    74   116   115    2
    75    39    42    1
    76    42    43    1
    77   103   101   ar
    78    82    81    1
    79   100   101   ar
    80   100    99    1
    81   115   114    1
    82    43    44    1
    83    99    96    1
    84    81    83    1
    85    81    78    1
    86   114   117    1
    87   114   113    1
    88    80    79    2
    89    95    96    1
    90    79    78    1
    91    96    97    1
    92   117   118    1
    93    44    45    1
    94    46    47    1
    95    78    77    1
    96    53    55   ar
    97    53    51   ar
    98   120   118   ar
    99   120   122   ar
   100    55    56   ar
   101   111   110    1
   102    97    98    2
   103   118   119   ar
   104   107   110    1
   105   107   106    1
   106   107   108    1
   107    47    50    1
   108    47    48    1
   109   109   108    2
   110   110   112    1
   111    50    51    1
   112    51    52   ar
   113   122   121   ar
   114    56    57    1
   115    56    54   ar
   116   119   121   ar
   117    48    49    2
   118    52    54   ar
   119    61    60    2
   120    70    69    2
   121    69    68    1
   122    60    59    1
   123    60    67   am
   124    68    67    1
   125    68    71    1
   126    66    64   am
   127    62    59    1
   128    62    63    1
   129    59    58    1
   130    64    63    1
   131    64    65    2
   132    71    72    1
   133    73    72   ar
   134    73    75   ar
   135    72    74   ar
   136    75    76   ar
   137    74    76   ar
