@<TRIPOS>MOLECULE
tmp/1rvjB10.pdb
 276 283 0 0 0
SMALL
GASTEIGER

@<TRIPOS>ATOM
      1  N        -17.2260   33.6550   75.4960 N.3    66  TRP66      -0.1227
      2  CA       -15.8580   34.1650   75.5040 C.3    66  TRP66       0.1737
      3  C        -15.6750   35.1440   76.6560 C.2    66  TRP66       0.2595
      4  O        -14.8320   34.9570   77.5330 O.2    66  TRP66      -0.2718
      5  CB       -15.5720   34.8840   74.1840 C.3    66  TRP66       0.0564
      6  CG       -14.3050   35.7120   74.1650 C.ar   66  TRP66       0.0003
      7  CD1      -13.0210   35.2570   74.2650 C.ar   66  TRP66       0.0946
      8  CD2      -14.2140   37.1360   73.9960 C.ar   66  TRP66       0.0152
      9  NE1      -12.1390   36.3030   74.1640 N.ar   66  TRP66      -0.2442
     10  CE2      -12.8400   37.4640   73.9980 C.ar   66  TRP66       0.0810
     11  CE3      -15.1590   38.1580   73.8420 C.ar   66  TRP66       0.0012
     12  CZ2      -12.3880   38.7840   73.8490 C.ar   66  TRP66       0.0191
     13  CZ3      -14.7070   39.4700   73.6930 C.ar   66  TRP66       0.0001
     14  CH2      -13.3310   39.7680   73.6980 C.ar   66  TRP66       0.0015
     15  N        -16.4840   36.1910   76.6330 N.am   67  PHE67      -0.1962
     16  CA       -16.4570   37.2500   77.6360 C.3    67  PHE67       0.1771
     17  C        -16.6500   36.7620   79.0520 C.2    67  PHE67       0.2619
     18  O        -16.0640   37.3130   79.9850 O.2    67  PHE67      -0.2715
     19  CB       -17.5520   38.2330   77.3320 C.3    67  PHE67       0.0574
     20  CG       -17.6020   39.4240   78.2570 C.ar   67  PHE67      -0.0200
     21  CD1      -16.7920   40.5370   78.0280 C.ar   67  PHE67      -0.0042
     22  CD2      -18.5810   39.4990   79.2560 C.ar   67  PHE67      -0.0042
     23  CE1      -16.9700   41.7060   78.7690 C.ar   67  PHE67      -0.0003
     24  CE2      -18.7620   40.6650   79.9930 C.ar   67  PHE67      -0.0003
     25  CZ       -17.9550   41.7680   79.7510 C.ar   67  PHE67      -0.0000
     26  N        -17.5030   35.7580   79.2160 N.am   68  PHE68      -0.1974
     27  CA       -17.7730   35.1990   80.5370 C.3    68  PHE68       0.1639
     28  C        -16.6280   34.2940   80.9830 C.2    68  PHE68       0.2290
     29  O        -16.3580   34.1830   82.1760 O.2    68  PHE68      -0.2864
     30  CB       -19.0940   34.4300   80.5210 C.3    68  PHE68       0.0560
     31  CG       -20.3060   35.3160   80.4200 C.ar   68  PHE68      -0.0200
     32  CD1      -21.3430   35.0070   79.5450 C.ar   68  PHE68      -0.0042
     33  CD2      -20.4170   36.4560   81.2060 C.ar   68  PHE68      -0.0042
     34  CE1      -22.4710   35.8230   79.4540 C.ar   68  PHE68      -0.0003
     35  CE2      -21.5440   37.2760   81.1200 C.ar   68  PHE68      -0.0003
     36  CZ       -22.5690   36.9620   80.2450 C.ar   68  PHE68      -0.0000
     37  N        -13.5600   34.8550   80.3410 N.3    70  ILE70      -0.1231
     38  CA       -12.5510   35.7990   80.7980 C.3    70  ILE70       0.1692
     39  C        -12.9800   36.4360   82.1180 C.2    70  ILE70       0.2593
     40  O        -12.1810   36.5890   83.0380 O.2    70  ILE70      -0.2718
     41  CB       -12.3220   36.9250   79.7530 C.3    70  ILE70       0.0266
     42  CG1      -11.8210   36.3270   78.4370 C.3    70  ILE70       0.0019
     43  CG2      -11.3210   37.9410   80.2860 C.3    70  ILE70       0.0020
     44  CD1      -11.7590   37.3330   77.2990 C.3    70  ILE70       0.0001
     45  N        -14.2570   36.7940   82.2100 N.am   71  GLY71      -0.1942
     46  CA       -14.7640   37.4360   83.4100 C.3    71  GLY71       0.2014
     47  C        -14.7730   36.5900   84.6660 C.2    71  GLY71       0.2638
     48  O        -14.5220   37.0950   85.7640 O.2    71  GLY71      -0.2714
     49  N        -15.0740   35.3060   84.5140 N.am   72  ILE72      -0.1977
     50  CA       -15.1060   34.4200   85.6630 C.3    72  ILE72       0.1596
     51  C        -13.6830   34.3150   86.1920 C.2    72  ILE72       0.2287
     52  O        -13.4530   34.3350   87.4020 O.2    72  ILE72      -0.2864
     53  CB       -15.6500   33.0140   85.2880 C.3    72  ILE72       0.0276
     54  CG1      -15.9540   32.2320   86.5700 C.3    72  ILE72       0.0022
     55  CG2      -14.6470   32.2620   84.4200 C.3    72  ILE72       0.0022
     56  CD1      -16.3770   30.7910   86.3440 C.3    72  ILE72       0.0001
     57  N        -11.5110   36.5370   85.9160 N.3    74  PHE74      -0.1227
     58  CA       -11.1900   37.8270   86.5130 C.3    74  PHE74       0.1736
     59  C        -11.6530   37.8290   87.9590 C.2    74  PHE74       0.2595
     60  O        -10.9360   38.2980   88.8450 O.2    74  PHE74      -0.2718
     61  CB       -11.8780   38.9580   85.7530 C.3    74  PHE74       0.0547
     62  CG       -11.0600   39.5140   84.6320 C.ar   74  PHE74      -0.0202
     63  CD1      -10.1820   38.7000   83.9250 C.ar   74  PHE74      -0.0042
     64  CD2      -11.2020   40.8420   84.2470 C.ar   74  PHE74      -0.0042
     65  CE1       -9.4570   39.2020   82.8490 C.ar   74  PHE74      -0.0003
     66  CE2      -10.4830   41.3510   83.1730 C.ar   74  PHE74      -0.0003
     67  CZ        -9.6120   40.5260   82.4720 C.ar   74  PHE74      -0.0000
     68  N        -12.8570   37.3110   88.1890 N.am   75  TRP75      -0.1976
     69  CA       -13.4050   37.2340   89.5360 C.3    75  TRP75       0.1640
     70  C        -12.4690   36.3830   90.3770 C.2    75  TRP75       0.2290
     71  O        -12.0350   36.7920   91.4520 O.2    75  TRP75      -0.2864
     72  CB       -14.7970   36.6090   89.5190 C.3    75  TRP75       0.0576
     73  CG       -15.8710   37.5920   89.2030 C.ar   75  TRP75       0.0006
     74  CD1      -16.5290   37.7350   88.0230 C.ar   75  TRP75       0.0946
     75  CD2      -16.3840   38.6050   90.0780 C.ar   75  TRP75       0.0152
     76  NE1      -17.4240   38.7750   88.1030 N.ar   75  TRP75      -0.2442
     77  CE2      -17.3560   39.3260   89.3520 C.ar   75  TRP75       0.0810
     78  CE3      -16.1160   38.9710   91.4030 C.ar   75  TRP75       0.0012
     79  CZ2      -18.0660   40.3960   89.9090 C.ar   75  TRP75       0.0191
     80  CZ3      -16.8210   40.0390   91.9580 C.ar   75  TRP75       0.0001
     81  CH2      -17.7850   40.7370   91.2090 C.ar   75  TRP75       0.0015
     82  N        -12.5200   43.3050   92.5640 N.3    85  PHE85      -0.1241
     83  CA       -12.8130   43.1410   91.1490 C.3    85  PHE85       0.1605
     84  C        -12.7580   44.4950   90.4420 C.2    85  PHE85       0.2264
     85  O        -12.1100   44.6420   89.4090 O.2    85  PHE85      -0.2867
     86  CB       -14.2040   42.5370   90.9590 C.3    85  PHE85       0.0534
     87  CG       -14.5470   42.2500   89.5250 C.ar   85  PHE85      -0.0203
     88  CD1      -14.0890   41.0900   88.9050 C.ar   85  PHE85      -0.0042
     89  CD2      -15.3060   43.1520   88.7850 C.ar   85  PHE85      -0.0042
     90  CE1      -14.3850   40.8320   87.5690 C.ar   85  PHE85      -0.0003
     91  CE2      -15.6040   42.9020   87.4490 C.ar   85  PHE85      -0.0003
     92  CZ       -15.1410   41.7400   86.8400 C.ar   85  PHE85      -0.0000
     93  N         -9.6470   45.9260   88.0490 N.3    89  LEU89      -0.1245
     94  CA       -10.2830   45.5280   86.7960 C.3    89  LEU89       0.1561
     95  C         -9.3740   45.5190   85.5710 C.2    89  LEU89       0.2260
     96  O         -9.4450   44.6090   84.7450 O.2    89  LEU89      -0.2867
     97  CB       -11.5110   46.4050   86.5190 C.3    89  LEU89       0.0270
     98  CG       -12.3820   45.9380   85.3410 C.3    89  LEU89       0.0019
     99  CD1      -12.7670   44.4680   85.5130 C.3    89  LEU89       0.0001
    100  CD2      -13.6200   46.8080   85.2520 C.3    89  LEU89       0.0001
    101  N         -2.7100   21.2190   74.0250 N.3   105  PHE105     -0.1241
    102  CA        -3.7970   21.6700   74.8760 C.3   105  PHE105      0.1605
    103  C         -3.6400   21.0630   76.2640 C.2   105  PHE105      0.2264
    104  O         -4.5460   21.1250   77.0950 O.2   105  PHE105     -0.2867
    105  CB        -5.1390   21.2800   74.2510 C.3   105  PHE105      0.0534
    106  CG        -5.3870   21.9190   72.9060 C.ar  105  PHE105     -0.0203
    107  CD1       -6.5040   22.7230   72.6960 C.ar  105  PHE105     -0.0042
    108  CD2       -4.4960   21.7290   71.8520 C.ar  105  PHE105     -0.0042
    109  CE1       -6.7260   23.3310   71.4590 C.ar  105  PHE105     -0.0003
    110  CE2       -4.7070   22.3300   70.6110 C.ar  105  PHE105     -0.0003
    111  CZ        -5.8240   23.1330   70.4140 C.ar  105  PHE105     -0.0000
    112  N         -7.6350   30.0530   78.5400 N.3   115  TRP115     -0.1227
    113  CA        -7.2980   30.9720   77.4650 C.3   115  TRP115      0.1737
    114  C         -7.7040   30.3460   76.1340 C.2   115  TRP115      0.2595
    115  O         -8.3210   30.9980   75.2860 O.2   115  TRP115     -0.2718
    116  CB        -5.7890   31.2630   77.4560 C.3   115  TRP115      0.0564
    117  CG        -5.3710   32.2200   76.3770 C.ar  115  TRP115      0.0003
    118  CD1       -5.3410   33.5850   76.4480 C.ar  115  TRP115      0.0946
    119  CD2       -5.0100   31.8770   75.0310 C.ar  115  TRP115      0.0152
    120  NE1       -4.9880   34.1120   75.2200 N.ar  115  TRP115     -0.2442
    121  CE2       -4.7800   33.0900   74.3400 C.ar  115  TRP115      0.0810
    122  CE3       -4.8660   30.6690   74.3450 C.ar  115  TRP115      0.0012
    123  CZ2       -4.4120   33.1210   72.9970 C.ar  115  TRP115      0.0191
    124  CZ3       -4.5010   30.7000   73.0070 C.ar  115  TRP115      0.0001
    125  CH2       -4.2780   31.9230   72.3460 C.ar  115  TRP115      0.0015
    126  N         -7.3400   29.0750   75.9650 N.am  116  LEU116     -0.1980
    127  CA        -7.6480   28.3170   74.7550 C.3   116  LEU116      0.1596
    128  C         -9.1500   28.1640   74.5950 C.2   116  LEU116      0.2287
    129  O         -9.6720   28.2030   73.4830 O.2   116  LEU116     -0.2864
    130  CB        -7.0000   26.9260   74.8130 C.3   116  LEU116      0.0297
    131  CG        -5.4860   26.8230   74.5760 C.3   116  LEU116      0.0022
    132  CD1       -5.0390   25.3850   74.7580 C.3   116  LEU116      0.0001
    133  CD2       -5.1420   27.2990   73.1730 C.3   116  LEU116      0.0001
    134  N        -10.4870   31.5800   73.8010 N.3   119  SER119     -0.1202
    135  CA       -10.0610   31.8540   72.4410 C.3   119  SER119      0.2020
    136  C        -10.9140   31.0790   71.4510 C.2   119  SER119      0.2618
    137  O        -11.2430   31.5760   70.3710 O.2   119  SER119     -0.2717
    138  CB        -8.5840   31.5020   72.2710 C.3   119  SER119      0.2103
    139  OG        -7.7860   32.3180   73.1020 O.3   119  SER119     -0.2182
    140  N        -11.2810   29.8590   71.8280 N.am  120  PHE120     -0.1975
    141  CA       -12.1090   29.0360   70.9660 C.3   120  PHE120      0.1639
    142  C        -13.4800   29.7020   70.7730 C.2   120  PHE120      0.2290
    143  O        -13.9660   29.8020   69.6450 O.2   120  PHE120     -0.2864
    144  CB       -12.2850   27.6320   71.5680 C.3   120  PHE120      0.0560
    145  CG       -13.1860   26.7480   70.7630 C.ar  120  PHE120     -0.0200
    146  CD1      -12.7610   26.2240   69.5430 C.ar  120  PHE120     -0.0042
    147  CD2      -14.4970   26.5180   71.1720 C.ar  120  PHE120     -0.0042
    148  CE1      -13.6370   25.4880   68.7370 C.ar  120  PHE120     -0.0003
    149  CE2      -15.3770   25.7850   70.3740 C.ar  120  PHE120     -0.0003
    150  CZ       -14.9480   25.2720   69.1550 C.ar  120  PHE120     -0.0000
    151  N        -14.2770   32.8250   71.0420 N.3   122  MET122     -0.1230
    152  CA       -14.0710   34.0240   70.2490 C.3   122  MET122      0.1702
    153  C        -13.8820   33.6850   68.7710 C.2   122  MET122      0.2592
    154  O        -14.3590   34.4060   67.8950 O.2   122  MET122     -0.2718
    155  CB       -12.8570   34.7850   70.7850 C.3   122  MET122      0.0401
    156  CG       -12.3260   35.8590   69.8580 C.3   122  MET122      0.0596
    157  SD       -10.9910   36.8080   70.5980 S.3   122  MET122     -0.1393
    158  CE       -11.7290   38.4170   70.7130 C.3   122  MET122      0.0692
    159  N        -13.1870   32.5850   68.4970 N.am  123  PHE123     -0.1976
    160  CA       -12.9520   32.1640   67.1190 C.3   123  PHE123      0.1639
    161  C        -14.2860   31.9080   66.4260 C.2   123  PHE123      0.2290
    162  O        -14.5100   32.3520   65.3020 O.2   123  PHE123     -0.2864
    163  CB       -12.1100   30.8880   67.0960 C.3   123  PHE123      0.0560
    164  CG       -11.6500   30.4900   65.7280 C.ar  123  PHE123     -0.0200
    165  CD1      -10.4900   31.0270   65.1880 C.ar  123  PHE123     -0.0042
    166  CD2      -12.3820   29.5760   64.9770 C.ar  123  PHE123     -0.0042
    167  CE1      -10.0580   30.6590   63.9160 C.ar  123  PHE123     -0.0003
    168  CE2      -11.9610   29.2020   63.7050 C.ar  123  PHE123     -0.0003
    169  CZ       -10.7980   29.7450   63.1740 C.ar  123  PHE123     -0.0000
    170  N         -6.4140   40.1720   63.3570 N.3   157  TRP157     -0.1227
    171  CA        -6.8440   39.3970   64.5060 C.3   157  TRP157      0.1737
    172  C         -6.3770   37.9400   64.3580 C.2   157  TRP157      0.2595
    173  O         -5.7020   37.4030   65.2350 O.2   157  TRP157     -0.2718
    174  CB        -8.3600   39.4820   64.5860 C.3   157  TRP157      0.0564
    175  CG        -8.9980   38.5440   65.5200 C.ar  157  TRP157      0.0003
    176  CD1       -9.0410   38.6350   66.8750 C.ar  157  TRP157      0.0946
    177  CD2       -9.7120   37.3570   65.1680 C.ar  157  TRP157      0.0152
    178  NE1       -9.7430   37.5740   67.3970 N.ar  157  TRP157     -0.2442
    179  CE2      -10.1640   36.7750   66.3720 C.ar  157  TRP157      0.0810
    180  CE3      -10.0130   36.7300   63.9500 C.ar  157  TRP157      0.0012
    181  CZ2      -10.9060   35.5860   66.3940 C.ar  157  TRP157      0.0191
    182  CZ3      -10.7480   35.5500   63.9750 C.ar  157  TRP157      0.0001
    183  CH2      -11.1850   34.9920   65.1890 C.ar  157  TRP157      0.0015
    184  N         -6.7330   37.3090   63.2450 N.am  158  MET158     -0.1979
    185  CA        -6.3410   35.9350   62.9950 C.3   158  MET158      0.1605
    186  C         -4.8420   35.7420   63.1280 C.2   158  MET158      0.2287
    187  O         -4.3670   34.7620   63.7120 O.2   158  MET158     -0.2864
    188  CB        -6.7800   35.5140   61.5970 C.3   158  MET158      0.0413
    189  CG        -8.1760   34.9500   61.5540 C.3   158  MET158      0.0598
    190  SD        -8.2240   33.3840   62.4110 S.3   158  MET158     -0.1393
    191  CE        -7.5200   32.3170   61.1290 C.3   158  MET158      0.0692
    192  N         -2.6350   37.7450   64.7730 N.3   160  LEU160     -0.1231
    193  CA        -2.2080   37.9860   66.1450 C.3   160  LEU160      0.1693
    194  C         -2.4190   36.8300   67.1250 C.2   160  LEU160      0.2593
    195  O         -1.5470   36.5360   67.9400 O.2   160  LEU160     -0.2718
    196  CB        -2.9130   39.2170   66.7120 C.3   160  LEU160      0.0284
    197  CG        -2.4970   40.5910   66.2010 C.3   160  LEU160      0.0019
    198  CD1       -3.4680   41.6280   66.7390 C.3   160  LEU160      0.0001
    199  CD2       -1.0680   40.9010   66.6380 C.3   160  LEU160      0.0001
    200  N         -3.5750   36.1820   67.0610 N.am  161  GLY161     -0.1942
    201  CA        -3.8410   35.0990   67.9900 C.3   161  GLY161      0.2014
    202  C         -3.8850   33.6750   67.4700 C.2   161  GLY161      0.2638
    203  O         -4.0210   32.7460   68.2610 O.2   161  GLY161     -0.2714
    204  N         -3.7550   33.4700   66.1640 N.am  162  PHE162     -0.1973
    205  CA        -3.8370   32.1070   65.6490 C.3   162  PHE162      0.1639
    206  C         -2.7600   31.7280   64.6300 C.2   162  PHE162      0.2290
    207  O         -2.0110   30.7740   64.8400 O.2   162  PHE162     -0.2864
    208  CB        -5.2440   31.8870   65.0670 C.3   162  PHE162      0.0560
    209  CG        -5.5250   30.4730   64.6430 C.ar  162  PHE162     -0.0200
    210  CD1       -5.4470   30.1070   63.2980 C.ar  162  PHE162     -0.0042
    211  CD2       -5.8890   29.5100   65.5780 C.ar  162  PHE162     -0.0042
    212  CE1       -5.7270   28.7990   62.8950 C.ar  162  PHE162     -0.0003
    213  CE2       -6.1700   28.1960   65.1820 C.ar  162  PHE162     -0.0003
    214  CZ        -6.0910   27.8420   63.8440 C.ar  162  PHE162     -0.0000
    215  N          1.3870   28.6730   71.5870 N.3   171  TRP171     -0.1241
    216  CA         0.3010   29.5720   71.9600 C.3   171  TRP171      0.1605
    217  C          0.7910   30.6850   72.8740 C.2   171  TRP171      0.2264
    218  O          0.0700   31.6510   73.1370 O.2   171  TRP171     -0.2867
    219  CB        -0.8080   28.8120   72.6980 C.3   171  TRP171      0.0550
    220  CG        -1.4620   27.7400   71.8980 C.ar  171  TRP171      0.0003
    221  CD1       -1.5330   26.4140   72.2080 C.ar  171  TRP171      0.0946
    222  CD2       -2.1480   27.9010   70.6520 C.ar  171  TRP171      0.0152
    223  NE1       -2.2170   25.7370   71.2300 N.ar  171  TRP171     -0.2442
    224  CE2       -2.6070   26.6230   70.2640 C.ar  171  TRP171      0.0810
    225  CE3       -2.4150   28.9990   69.8260 C.ar  171  TRP171      0.0012
    226  CZ2       -3.3240   26.4120   69.0810 C.ar  171  TRP171      0.0191
    227  CZ3       -3.1280   28.7910   68.6460 C.ar  171  TRP171      0.0001
    228  CH2       -3.5740   27.5050   68.2870 C.ar  171  TRP171      0.0015
    229  N         -1.8770   36.9120   72.1130 N.3   175  VAL175     -0.1231
    230  CA        -2.1940   38.0490   72.9640 C.3   175  VAL175      0.1678
    231  C         -3.0460   37.6330   74.1570 C.2   175  VAL175      0.2434
    232  O         -4.0170   36.8990   73.9990 O.2   175  VAL175     -0.2733
    233  CB        -3.0010   39.1230   72.1800 C.3   175  VAL175      0.0265
    234  CG1       -3.1950   40.3680   73.0470 C.3   175  VAL175      0.0020
    235  CG2       -2.3070   39.4470   70.8640 C.3   175  VAL175      0.0020
    236  N         -2.6990   38.1000   75.3710 N.am  176  PRO176     -0.2718
    237  CA        -3.4670   37.7640   76.5760 C.3   176  PRO176      0.1535
    238  C         -4.7790   38.5580   76.6050 C.2   176  PRO176      0.2599
    239  O         -4.9050   39.5780   75.9260 O.2   176  PRO176     -0.2715
    240  CB        -2.5290   38.1890   77.7040 C.3   176  PRO176      0.0310
    241  CG        -1.8890   39.4170   77.1210 C.3   176  PRO176      0.0237
    242  CD        -1.5300   38.9270   75.7240 C.3   176  PRO176      0.0939
    243  N         -5.7490   38.1000   77.3910 N.am  177  TYR177     -0.1960
    244  CA        -7.0250   38.8000   77.4880 C.3   177  TYR177      0.1771
    245  C         -7.0580   39.7160   78.7100 C.2   177  TYR177      0.2620
    246  O         -7.3870   39.2890   79.8200 O.2   177  TYR177     -0.2715
    247  CB        -8.1860   37.7980   77.5470 C.3   177  TYR177      0.0574
    248  CG        -8.3660   37.0040   76.2690 C.ar  177  TYR177     -0.0198
    249  CD1       -8.6620   37.6470   75.0690 C.ar  177  TYR177     -0.0009
    250  CD2       -8.2120   35.6210   76.2540 C.ar  177  TYR177     -0.0009
    251  CE1       -8.7980   36.9370   73.8840 C.ar  177  TYR177      0.0417
    252  CE2       -8.3400   34.8950   75.0730 C.ar  177  TYR177      0.0417
    253  CZ        -8.6300   35.5630   73.8930 C.ar  177  TYR177      0.1957
    254  OH        -8.7230   34.8790   72.7090 O.3   177  TYR177     -0.2866
    255  N         -6.7090   40.9790   78.4900 N.am  178  GLY178     -0.1940
    256  CA        -6.7000   41.9550   79.5650 C.3   178  GLY178      0.2014
    257  C         -6.4590   43.3590   79.0370 C.2   178  GLY178      0.2638
    258  O         -5.7570   43.5450   78.0400 O.2   178  GLY178     -0.2714
    259  N         -7.0370   44.3490   79.7080 N.am  179  ILE179     -0.1977
    260  CA        -6.8870   45.7350   79.3070 C.3   179  ILE179      0.1596
    261  C         -5.4280   46.1750   79.3080 C.2   179  ILE179      0.2287
    262  O         -4.8640   46.5080   78.2590 O.2   179  ILE179     -0.2864
    263  CB        -7.6930   46.6660   80.2360 C.3   179  ILE179      0.0276
    264  CG1       -9.1970   46.3820   80.0900 C.3   179  ILE179      0.0022
    265  CG2       -7.3890   48.1110   79.9230 C.3   179  ILE179      0.0022
    266  CD1       -9.7030   46.3650   78.6460 C.3   179  ILE179      0.0001
    267  N         -2.7490   43.4440   77.6000 N.3   182  HIS182     -0.1241
    268  CA        -2.7270   43.4240   76.1460 C.3   182  HIS182      0.1621
    269  C         -1.9210   44.6170   75.6370 C.2   182  HIS182      0.2264
    270  O         -1.3430   44.5680   74.5590 O.2   182  HIS182     -0.2867
    271  CB        -4.1730   43.3150   75.5950 C.3   182  HIS182      0.0745
    272  CG        -4.7090   44.5490   74.9450 C.ar  182  HIS182      0.0817
    273  ND1       -5.1860   45.6110   75.6760 N.ar  182  HIS182     -0.2268
    274  CD2       -4.8970   44.7960   73.6210 C.ar  182  HIS182      0.1154
    275  CE1       -5.6570   46.4730   74.7990 C.ar  182  HIS182      0.1986
    276  NE2       -5.5050   46.0270   73.5360 N.ar  182  HIS182     -0.2212
@<TRIPOS>BOND
     1   191   190    1
     2   189   188    1
     3   189   190    1
     4   188   185    1
     5   212   210   ar
     6   212   214   ar
     7   185   186    1
     8   185   184    1
     9   186   187    2
    10   169   168   ar
    11   169   167   ar
    12   184   172   am
    13   210   209   ar
    14   170   171    1
    15   168   166   ar
    16   214   213   ar
    17   167   165   ar
    18   180   182   ar
    19   180   177   ar
    20   182   183   ar
    21   172   171    1
    22   172   173    2
    23   171   174    1
    24   174   175    1
    25   206   207    2
    26   206   205    1
    27   209   208    1
    28   209   211   ar
    29   192   193    1
    30   166   164   ar
    31   208   205    1
    32   177   175   ar
    33   177   179   ar
    34   213   211   ar
    35   165   164   ar
    36   183   181   ar
    37   162   161    2
    38   175   176   ar
    39   205   204    1
    40   164   163    1
    41   193   196    1
    42   193   194    1
    43   204   202   am
    44   197   199    1
    45   197   196    1
    46   197   198    1
    47   179   181   ar
    48   179   178   ar
    49   161   160    1
    50   176   178   ar
    51   200   194   am
    52   200   201    1
    53   163   160    1
    54   160   159    1
    55   194   195    2
    56   202   201    1
    57   202   203    2
    58   154   153    2
    59   228   227   ar
    60   228   226   ar
    61   159   153   am
    62   227   225   ar
    63   148   150   ar
    64   148   146   ar
    65   153   152    1
    66   226   224   ar
    67   150   149   ar
    68   146   145   ar
    69   143   142    2
    70   225   222   ar
    71   156   157    1
    72   156   155    1
    73   152   155    1
    74   152   151    1
    75   224   222   ar
    76   224   223   ar
    77   137   136    2
    78   149   147   ar
    79   111   110   ar
    80   111   109   ar
    81   157   158    1
    82   110   108   ar
    83   222   220   ar
    84   145   147   ar
    85   145   144    1
    86   142   141    1
    87   235   233    1
    88   141   144    1
    89   141   140    1
    90   223   221   ar
    91   136   140   am
    92   136   135    1
    93   109   107   ar
    94   215   216    1
    95   108   106   ar
    96   220   221   ar
    97   220   219    1
    98   216   219    1
    99   216   217    1
   100   229   230    1
   101   233   230    1
   102   233   234    1
   103   138   135    1
   104   138   139    1
   105   125   123   ar
   106   125   124   ar
   107   135   134    1
   108   107   106   ar
   109   254   253    1
   110   217   218    2
   111   106   105    1
   112   230   231    1
   113   123   121   ar
   114   124   122   ar
   115   133   131    1
   116   129   128    2
   117   276   274   ar
   118   276   275   ar
   119   274   272   ar
   120    13    14   ar
   121    13    11   ar
   122    14    12   ar
   123    11     8   ar
   124    12    10   ar
   125   251   253   ar
   126   251   249   ar
   127   253   252   ar
   128     8    10   ar
   129     8     6   ar
   130    10     9   ar
   131   232   231    2
   132   101   102    1
   133   231   236   am
   134     9     7   ar
   135     6     5    1
   136     6     7   ar
   137     5     2    1
   138   105   102    1
   139   121   119   ar
   140   121   120   ar
   141   122   119   ar
   142   270   269    2
   143   131   132    1
   144   131   130    1
   145   128   127    1
   146   127   130    1
   147   127   126    1
   148   275   273   ar
   149   102   103    1
   150   272   271    1
   151   272   273   ar
   152   119   117   ar
   153   249   248   ar
   154   252   250   ar
   155   120   118   ar
   156   115   114    2
   157   236   242    1
   158   236   237    1
   159     1     2    1
   160     2     3    1
   161   271   268    1
   162   269   268    1
   163   242   241    1
   164   239   238    2
   165   126   114   am
   166   114   113    1
   167   268   267    1
   168   250   248   ar
   169   103   104    2
   170   248   247    1
   171   117   118   ar
   172   117   116    1
   173   237   238    1
   174   237   240    1
   175   238   243   am
   176    15     3   am
   177    15    16    1
   178     3     4    2
   179   241   240    1
   180    44    42    1
   181    19    16    1
   182    19    20    1
   183   243   244    1
   184   116   113    1
   185   113   112    1
   186   244   247    1
   187   244   245    1
   188    16    17    1
   189    21    20   ar
   190    21    23   ar
   191   258   257    2
   192    20    22   ar
   193   262   261    2
   194    42    41    1
   195   255   245   am
   196   255   256    1
   197   266   264    1
   198   245   246    2
   199    23    25   ar
   200   257   256    1
   201   257   259   am
   202    17    26   am
   203    17    18    2
   204    26    27    1
   205    22    24   ar
   206   260   261    1
   207   260   259    1
   208   260   263    1
   209    34    32   ar
   210    34    36   ar
   211    32    31   ar
   212    25    24   ar
   213    41    43    1
   214    41    38    1
   215   265   263    1
   216   264   263    1
   217    36    35   ar
   218    37    38    1
   219    31    30    1
   220    31    33   ar
   221    30    27    1
   222    27    28    1
   223    38    39    1
   224    28    29    2
   225    35    33   ar
   226    39    45   am
   227    39    40    2
   228    45    46    1
   229    67    65   ar
   230    67    66   ar
   231    65    63   ar
   232    66    64   ar
   233    46    47    1
   234    63    62   ar
   235    64    62   ar
   236    55    53    1
   237    49    47   am
   238    49    50    1
   239    62    61    1
   240    47    48    2
   241    96    95    2
   242   100    98    1
   243    53    50    1
   244    53    54    1
   245    98    99    1
   246    98    97    1
   247    95    94    1
   248    50    51    1
   249    61    58    1
   250    57    58    1
   251    51    52    2
   252    56    54    1
   253    58    59    1
   254    97    94    1
   255    94    93    1
   256    92    91   ar
   257    92    90   ar
   258    91    89   ar
   259    90    88   ar
   260    59    68   am
   261    59    60    2
   262    74    76   ar
   263    74    73   ar
   264    76    77   ar
   265    68    69    1
   266    89    87   ar
   267    88    87   ar
   268    73    72    1
   269    73    75   ar
   270    77    79   ar
   271    77    75   ar
   272    85    84    2
   273    72    69    1
   274    87    86    1
   275    69    70    1
   276    79    81   ar
   277    75    78   ar
   278    70    71    2
   279    84    83    1
   280    86    83    1
   281    83    82    1
   282    81    80   ar
   283    78    80   ar
