@<TRIPOS>MOLECULE
tmp/1rvtC01.pdb
 93 87 0 0 0
SMALL
GASTEIGER

@<TRIPOS>ATOM
      1  N         81.2790   33.3290  -16.7380 N.3   133  THR133     -0.1203
      2  CA        79.8550   33.5010  -16.4900 C.3   133  THR133      0.1994
      3  C         79.6570   34.5200  -15.3840 C.2   133  THR133      0.2617
      4  O         80.4960   34.6490  -14.4930 O.2   133  THR133     -0.2717
      5  CB        79.2060   32.1630  -16.0560 C.3   133  THR133      0.1784
      6  OG1       77.8730   32.4000  -15.5760 O.3   133  THR133     -0.2211
      7  CG2       80.0280   31.5140  -14.9510 C.3   133  THR133      0.0376
      8  N         78.5520   35.2520  -15.4450 N.am  134  ALA134     -0.1979
      9  CA        78.2570   36.2430  -14.4200 C.3   134  ALA134      0.1597
     10  C         77.8760   35.5140  -13.1280 C.2   134  ALA134      0.2287
     11  O         77.7980   36.1190  -12.0530 O.2   134  ALA134     -0.2864
     12  CB        77.1130   37.1460  -14.8760 C.3   134  ALA134      0.0319
     13  N         83.3150   26.5410  -28.7300 N.3   153  LYS153     -0.1245
     14  CA        83.7430   26.4250  -30.1170 C.3   153  LYS153      0.1561
     15  C         84.6600   27.5490  -30.5810 C.2   153  LYS153      0.2260
     16  O         84.6270   28.6650  -30.0620 O.2   153  LYS153     -0.2867
     17  CB        82.5280   26.3340  -31.0480 C.3   153  LYS153      0.0271
     18  CG        81.7710   27.6330  -31.2610 C.3   153  LYS153      0.0035
     19  CD        80.5480   27.3910  -32.1390 C.3   153  LYS153      0.0206
     20  CE        79.8380   28.6930  -32.4820 C.3   153  LYS153      0.1093
     21  NZ        78.5410   28.4610  -33.1730 N.3   153  LYS153     -0.1314
     22  N         70.2380   26.2320  -21.7080 N.3   183  PRO183     -0.2116
     23  CA        68.7790   26.2870  -21.5820 C.3   183  PRO183      0.1372
     24  C         68.0440   26.1400  -22.9150 C.2   183  PRO183      0.2244
     25  O         66.8940   25.7030  -22.9450 O.2   183  PRO183     -0.2868
     26  CB        68.5420   27.6480  -20.9360 C.3   183  PRO183      0.0268
     27  CG        69.6460   28.4650  -21.4920 C.3   183  PRO183      0.0207
     28  CD        70.8370   27.5400  -21.3980 C.3   183  PRO183      0.0892
     29  N         69.5580   27.0420  -29.2160 N.3   186  THR186     -0.1203
     30  CA        70.2730   28.0900  -29.9350 C.3   186  THR186      0.1994
     31  C         71.5690   28.3880  -29.1910 C.2   186  THR186      0.2617
     32  O         72.5830   28.7310  -29.8020 O.2   186  THR186     -0.2717
     33  CB        69.4290   29.3840  -30.0790 C.3   186  THR186      0.1784
     34  OG1       69.2410   29.9940  -28.7970 O.3   186  THR186     -0.2211
     35  CG2       68.0720   29.0590  -30.6860 C.3   186  THR186      0.0376
     36  N         71.5380   28.2480  -27.8680 N.am  187  ASP187     -0.1973
     37  CA        72.7350   28.4760  -27.0690 C.3   187  ASP187      0.1709
     38  C         73.6790   27.3030  -27.2850 C.2   187  ASP187      0.2293
     39  O         74.8990   27.4670  -27.2730 O.2   187  ASP187     -0.2864
     40  CB        72.3870   28.6090  -25.5830 C.3   187  ASP187      0.1436
     41  CG        71.6000   29.8740  -25.2810 C.2   187  ASP187      0.3671
     42  OD1       71.9510   30.9450  -25.8320 O.co2 187  ASP187     -0.2456
     43  OD2       70.6360   29.8010  -24.4900 O.co2 187  ASP187     -0.2456
     44  N         74.1230   25.7710  -29.9880 N.3   189  GLN189     -0.1231
     45  CA        74.8100   25.9880  -31.2530 C.3   189  GLN189      0.1698
     46  C         75.7950   27.1390  -31.0950 C.2   189  GLN189      0.2593
     47  O         76.9200   27.0690  -31.5740 O.2   189  GLN189     -0.2718
     48  CB        73.7980   26.2950  -32.3540 C.3   189  GLN189      0.0381
     49  CG        74.3390   26.1200  -33.7610 C.3   189  GLN189      0.0905
     50  CD        73.2520   26.2370  -34.8160 C.2   189  GLN189      0.2608
     51  OE1       72.2240   25.5500  -34.7470 O.2   189  GLN189     -0.2717
     52  NE2       73.4720   27.1040  -35.8030 N.am  189  GLN189     -0.0878
     53  N         75.3710   28.2000  -30.4160 N.am  190  SER190     -0.1938
     54  CA        76.2480   29.3430  -30.1950 C.3   190  SER190      0.2055
     55  C         77.4820   28.8770  -29.4530 C.2   190  SER190      0.2642
     56  O         78.5940   29.3310  -29.7130 O.2   190  SER190     -0.2714
     57  CB        75.5660   30.4140  -29.3420 C.3   190  SER190      0.2130
     58  OG        74.4890   31.0280  -30.0160 O.3   190  SER190     -0.2179
     59  N         77.2640   27.9650  -28.5150 N.am  191  LEU191     -0.1977
     60  CA        78.3350   27.4410  -27.6880 C.3   191  LEU191      0.1596
     61  C         79.1930   26.3400  -28.2890 C.2   191  LEU191      0.2287
     62  O         80.4220   26.4250  -28.2650 O.2   191  LEU191     -0.2864
     63  CB        77.7570   26.9430  -26.3660 C.3   191  LEU191      0.0297
     64  CG        77.4020   27.9980  -25.3220 C.3   191  LEU191      0.0022
     65  CD1       76.5910   27.3630  -24.2080 C.3   191  LEU191      0.0001
     66  CD2       78.6740   28.5990  -24.7780 C.3   191  LEU191      0.0001
     67  N         65.5910   29.9490  -13.1280 N.3   219  LYS219     -0.1245
     68  CA        66.8860   30.6020  -12.9970 C.3   219  LYS219      0.1561
     69  C         67.4460   30.6400  -11.5830 C.2   219  LYS219      0.2260
     70  O         66.7610   31.0160  -10.6360 O.2   219  LYS219     -0.2867
     71  CB        66.8280   32.0350  -13.5360 C.3   219  LYS219      0.0271
     72  CG        66.7200   32.1310  -15.0440 C.3   219  LYS219      0.0035
     73  CD        66.6580   33.5720  -15.5240 C.3   219  LYS219      0.0206
     74  CE        66.7020   33.6110  -17.0490 C.3   219  LYS219      0.1093
     75  NZ        66.6210   34.9830  -17.6300 N.3   219  LYS219     -0.1314
     76  N         70.9750   33.6330  -11.9840 N.3   222  GLY222     -0.1210
     77  CA        70.8600   34.1310  -13.3390 C.3   222  GLY222      0.1956
     78  C         70.8270   33.0620  -14.4120 C.2   222  GLY222      0.2612
     79  O         70.4010   33.3310  -15.5300 O.2   222  GLY222     -0.2717
     80  N         71.2470   31.8450  -14.0930 N.am  223  GLN223     -0.1965
     81  CA        71.2710   30.7930  -15.1060 C.3   223  GLN223      0.1733
     82  C         70.0110   29.9370  -15.2270 C.2   223  GLN223      0.2616
     83  O         69.4510   29.4720  -14.2330 O.2   223  GLN223     -0.2715
     84  CB        72.4700   29.8720  -14.8690 C.3   223  GLN223      0.0408
     85  CG        73.7840   30.6020  -14.6920 C.3   223  GLN223      0.0908
     86  CD        74.0870   31.5310  -15.8450 C.2   223  GLN223      0.2608
     87  OE1       74.1410   31.1090  -17.0000 O.2   223  GLN223     -0.2717
     88  NE2       74.2890   32.8030  -15.5390 N.am  223  GLN223     -0.0878
     89  N         69.5750   29.7340  -16.4650 N.am  224  ALA224     -0.1977
     90  CA        68.4150   28.8980  -16.7590 C.3   224  ALA224      0.1597
     91  C         68.9980   27.5450  -17.1700 C.2   224  ALA224      0.2287
     92  O         68.2970   26.5280  -17.2130 O.2   224  ALA224     -0.2864
     93  CB        67.5980   29.4940  -17.8980 C.3   224  ALA224      0.0319
@<TRIPOS>BOND
     1    52    50   am
     2    50    51    2
     3    50    49    1
     4    49    48    1
     5    21    20    1
     6    20    19    1
     7    48    45    1
     8    19    18    1
     9    47    46    2
    10    18    17    1
    11    45    46    1
    12    45    44    1
    13    46    53   am
    14    17    14    1
    15    35    33    1
    16    15    14    1
    17    15    16    2
    18    53    54    1
    19    54    55    1
    20    54    57    1
    21    14    13    1
    22    33    30    1
    23    33    34    1
    24    58    57    1
    25    30    29    1
    26    30    31    1
    27    32    31    2
    28    56    55    2
    29    55    59   am
    30    31    36   am
    31    59    60    1
    32    61    62    2
    33    61    60    1
    34    36    37    1
    35    60    63    1
    36    38    39    2
    37    38    37    1
    38    37    40    1
    39    63    64    1
    40    42    41   ar
    41    40    41    1
    42    64    66    1
    43    64    65    1
    44    41    43   ar
    45    25    24    2
    46    24    23    1
    47    22    23    1
    48    22    28    1
    49    23    26    1
    50    27    28    1
    51    27    26    1
    52    93    90    1
    53    75    74    1
    54    92    91    2
    55    91    90    1
    56    74    73    1
    57    87    86    2
    58    90    89    1
    59     1     2    1
    60     2     5    1
    61     2     3    1
    62    89    82   am
    63     5     6    1
    64     5     7    1
    65    86    88   am
    66    86    85    1
    67    79    78    2
    68    73    72    1
    69     8     3   am
    70     8     9    1
    71     3     4    2
    72    82    81    1
    73    82    83    2
    74    81    84    1
    75    81    80    1
    76    72    71    1
    77    12     9    1
    78    84    85    1
    79     9    10    1
    80    78    80   am
    81    78    77    1
    82    71    68    1
    83    77    76    1
    84    67    68    1
    85    10    11    2
    86    68    69    1
    87    69    70    2
