@<TRIPOS>MOLECULE
tmp/1rvvG00.pdb
 114 113 0 0 0
SMALL
GASTEIGER

@<TRIPOS>ATOM
      1  N         56.0100  -21.1000    4.9530 N.3    20  GLY20      -0.1225
      2  CA        55.5280  -20.3780    6.1040 C.3    20  GLY20       0.1811
      3  C         54.7740  -21.2420    7.1020 C.2    20  GLY20       0.2280
      4  O         53.9580  -22.0560    6.7050 O.2    20  GLY20      -0.2866
      5  N         52.6720  -20.0130    9.4750 N.3    22  PHE22      -0.1227
      6  CA        51.3450  -19.4160    9.5100 C.3    22  PHE22       0.1736
      7  C         50.3950  -20.0900    8.4940 C.2    22  PHE22       0.2595
      8  O         50.7530  -20.2830    7.3240 O.2    22  PHE22      -0.2718
      9  CB        51.4670  -17.8790    9.3160 C.3    22  PHE22       0.0547
     10  CG        50.4400  -17.0880   10.0550 C.ar   22  PHE22      -0.0202
     11  CD1       49.0920  -17.1530    9.7360 C.ar   22  PHE22      -0.0042
     12  CD2       50.8350  -16.2870   11.1020 C.ar   22  PHE22      -0.0042
     13  CE1       48.1620  -16.4600   10.4630 C.ar   22  PHE22      -0.0003
     14  CE2       49.9190  -15.5470   11.8080 C.ar   22  PHE22      -0.0003
     15  CZ        48.5910  -15.6330   11.4910 C.ar   22  PHE22      -0.0000
     16  N         49.2040  -20.4610    8.9820 N.am   23  ASN23      -0.1974
     17  CA        48.1550  -21.1990    8.2230 C.3    23  ASN23       0.1688
     18  C         48.6770  -22.5370    7.7370 C.2    23  ASN23       0.2292
     19  O         48.3600  -23.0270    6.6510 O.2    23  ASN23      -0.2864
     20  CB        47.5730  -20.4360    6.9990 C.3    23  ASN23       0.1181
     21  CG        46.8320  -19.2190    7.4250 C.2    23  ASN23       0.2629
     22  OD1       46.0230  -19.3690    8.3040 O.2    23  ASN23      -0.2716
     23  ND2       47.0780  -18.0040    7.0050 N.am   23  ASN23      -0.0877
     24  N         58.4810  -18.2950   10.3340 N.3    54  PRO54      -0.2102
     25  CA        57.2500  -17.8500   11.0140 C.3    54  PRO54       0.1504
     26  C         56.0370  -17.5430   10.0800 C.2    54  PRO54       0.2576
     27  O         54.9400  -18.0780   10.2920 O.2    54  PRO54      -0.2718
     28  CB        57.7610  -16.6320   11.7710 C.3    54  PRO54       0.0282
     29  CG        59.1440  -17.0230   12.1710 C.3    54  PRO54       0.0208
     30  CD        59.6510  -17.5360   10.8550 C.3    54  PRO54       0.0893
     31  N         56.1800  -16.7130    9.0380 N.am   55  GLY55      -0.1943
     32  CA        55.0910  -16.4020    8.1280 C.3    55  GLY55       0.2014
     33  C         55.6320  -15.7620    6.8450 C.2    55  GLY55       0.2639
     34  O         56.8440  -15.6370    6.6400 O.2    55  GLY55      -0.2714
     35  N         54.7050  -15.3420    5.9900 N.am   56  ALA56      -0.1963
     36  CA        55.0250  -14.7920    4.6750 C.3    56  ALA56       0.1728
     37  C         55.9360  -13.5620    4.6710 C.2    56  ALA56       0.2616
     38  O         56.6720  -13.4270    3.6990 O.2    56  ALA56      -0.2715
     39  CB        53.7660  -14.6170    3.8260 C.3    56  ALA56       0.0334
     40  N         55.9470  -12.7260    5.7110 N.am   57  PHE57      -0.1960
     41  CA        56.8510  -11.5830    5.7790 C.3    57  PHE57       0.1771
     42  C         58.3380  -12.0240    5.7110 C.2    57  PHE57       0.2619
     43  O         59.1650  -11.3400    5.0970 O.2    57  PHE57      -0.2715
     44  CB        56.5380  -10.6440    6.9980 C.3    57  PHE57       0.0574
     45  CG        57.0730   -9.2130    6.8670 C.ar   57  PHE57      -0.0200
     46  CD1       58.3660   -8.8550    7.2600 C.ar   57  PHE57      -0.0042
     47  CD2       56.2950   -8.2180    6.3040 C.ar   57  PHE57      -0.0042
     48  CE1       58.8860   -7.5840    7.0430 C.ar   57  PHE57      -0.0003
     49  CE2       56.7810   -6.9190    6.1380 C.ar   57  PHE57      -0.0003
     50  CZ        58.0840   -6.6010    6.4790 C.ar   57  PHE57      -0.0000
     51  N         58.6320  -13.2130    6.2580 N.am   58  GLU58      -0.1977
     52  CA        59.9530  -13.8140    6.3440 C.3    58  GLU58       0.1602
     53  C         60.4070  -14.6120    5.1110 C.2    58  GLU58       0.2287
     54  O         61.6050  -14.9070    4.9660 O.2    58  GLU58      -0.2864
     55  CB        60.0650  -14.8090    7.4530 C.3    58  GLU58       0.0415
     56  CG        60.0110  -14.5850    8.9410 C.3    58  GLU58       0.1163
     57  CD        58.9100  -13.5960    9.3620 C.2    58  GLU58       0.3649
     58  OE1       57.7050  -13.9070    9.3270 O.co2  58  GLU58      -0.2457
     59  OE2       59.2690  -12.4910    9.7160 O.co2  58  GLU58      -0.2457
     60  N         53.1560  -20.3640    0.9760 N.3    79  GLY79      -0.1210
     61  CA        52.5280  -19.6200    2.0390 C.3    79  GLY79       0.1956
     62  C         51.0270  -19.5130    1.8250 C.2    79  GLY79       0.2613
     63  O         50.5450  -19.7730    0.7220 O.2    79  GLY79      -0.2717
     64  N         50.2850  -19.1790    2.8670 N.am   80  THR80      -0.1938
     65  CA        48.8660  -18.8640    2.7670 C.3    80  THR80       0.2028
     66  C         48.5740  -17.6560    3.6570 C.2    80  THR80       0.2642
     67  O         48.9540  -17.6360    4.8130 O.2    80  THR80      -0.2714
     68  CB        48.0500  -20.0840    3.2130 C.3    80  THR80       0.1808
     69  OG1       48.3450  -21.1510    2.3220 O.3    80  THR80      -0.2208
     70  CG2       46.5470  -19.8740    3.2070 C.3    80  THR80       0.0379
     71  N         47.9240  -16.6300    3.1220 N.am   81  VAL81      -0.1963
     72  CA        47.5160  -15.3930    3.7850 C.3    81  VAL81       0.1727
     73  C         46.0080  -15.3640    3.5430 C.2    81  VAL81       0.2616
     74  O         45.5970  -15.2860    2.3960 O.2    81  VAL81      -0.2715
     75  CB        48.2270  -14.1510    3.1420 C.3    81  VAL81       0.0290
     76  CG1       47.7110  -12.8750    3.7710 C.3    81  VAL81       0.0023
     77  CG2       49.7370  -14.2260    3.2310 C.3    81  VAL81       0.0023
     78  N         45.1960  -15.4970    4.5590 N.am   82  ILE82      -0.1977
     79  CA        43.7370  -15.4810    4.4370 C.3    82  ILE82       0.1596
     80  C         43.2680  -14.1040    4.9770 C.2    82  ILE82       0.2287
     81  O         43.6810  -13.8030    6.0960 O.2    82  ILE82      -0.2864
     82  CB        43.1010  -16.6570    5.3070 C.3    82  ILE82       0.0276
     83  CG1       43.5590  -18.0560    4.8000 C.3    82  ILE82       0.0022
     84  CG2       41.5820  -16.5570    5.3050 C.3    82  ILE82       0.0022
     85  CD1       43.3240  -19.2850    5.6880 C.3    82  ILE82       0.0001
     86  N         45.9320   -5.5680    7.3970 N.3    88  HIS88      -0.1226
     87  CA        47.2390   -6.1650    7.6390 C.3    88  HIS88       0.1752
     88  C         47.6730   -7.1480    6.5360 C.2    88  HIS88       0.2596
     89  O         48.7870   -7.0200    6.0160 O.2    88  HIS88      -0.2718
     90  CB        47.2320   -6.8320    9.0090 C.3    88  HIS88       0.0759
     91  CG        48.6030   -7.1880    9.4910 C.ar   88  HIS88       0.0818
     92  ND1       49.5800   -6.2470    9.7380 N.ar   88  HIS88      -0.2268
     93  CD2       49.1560   -8.3940    9.7810 C.ar   88  HIS88       0.1154
     94  CE1       50.6760   -6.8470   10.1670 C.ar   88  HIS88       0.1986
     95  NE2       50.4340   -8.1440   10.2090 N.ar   88  HIS88      -0.2212
     96  N         46.7350   -8.0590    6.1880 N.am   89  TYR89      -0.1976
     97  CA        46.7760   -8.9600    5.0100 C.3    89  TYR89       0.1639
     98  C         47.6310   -8.4450    3.8360 C.2    89  TYR89       0.2290
     99  O         48.5700   -9.0770    3.3420 O.2    89  TYR89      -0.2864
    100  CB        45.2910   -9.2000    4.5410 C.3    89  TYR89       0.0560
    101  CG        44.9620   -9.7890    3.1560 C.ar   89  TYR89      -0.0198
    102  CD1       44.8320  -11.1630    2.9510 C.ar   89  TYR89      -0.0009
    103  CD2       44.6980   -8.9770    2.0470 C.ar   89  TYR89      -0.0009
    104  CE1       44.3930  -11.6990    1.7530 C.ar   89  TYR89       0.0417
    105  CE2       44.2570   -9.5030    0.8440 C.ar   89  TYR89       0.0417
    106  CZ        44.0750  -10.8620    0.7100 C.ar   89  TYR89       0.1957
    107  OH        43.5680  -11.3850   -0.4590 O.3    89  TYR89      -0.2866
    108  N         51.4290   -7.5560    4.1260 N.3    92  VAL92      -0.1245
    109  CA        52.0680   -8.8780    4.1030 C.3    92  VAL92       0.1561
    110  C         52.1840   -9.4260    2.6710 C.2    92  VAL92       0.2260
    111  O         53.3150   -9.6120    2.2180 O.2    92  VAL92      -0.2867
    112  CB        51.2910   -9.8830    5.0410 C.3    92  VAL92       0.0252
    113  CG1       51.9590  -11.2510    5.1030 C.3    92  VAL92       0.0019
    114  CG2       51.1810   -9.3210    6.4660 C.3    92  VAL92       0.0019
@<TRIPOS>BOND
     1   107   106    1
     2   106   105   ar
     3   106   104   ar
     4    63    62    2
     5   105   103   ar
     6    60    61    1
     7   104   102   ar
     8    62    61    1
     9    62    64   am
    10   103   101   ar
    11   111   110    2
    12    69    68    1
    13    74    73    2
    14   110   109    1
    15    65    64    1
    16    65    68    1
    17    65    66    1
    18   102   101   ar
    19    71    66   am
    20    71    72    1
    21    75    77    1
    22    75    76    1
    23    75    72    1
    24   101   100    1
    25    70    68    1
    26    99    98    2
    27    73    72    1
    28    73    78   am
    29    66    67    2
    30    38    37    2
    31    39    36    1
    32    98    97    1
    33   109   108    1
    34   109   112    1
    35    79    78    1
    36    79    80    1
    37    79    82    1
    38   100    97    1
    39    37    36    1
    40    37    40   am
    41    36    35    1
    42    83    82    1
    43    83    85    1
    44     1     2    1
    45    54    53    2
    46    80    81    2
    47    97    96    1
    48   112   113    1
    49   112   114    1
    50    43    42    2
    51    53    52    1
    52    84    82    1
    53    40    41    1
    54    42    41    1
    55    42    51   am
    56    41    44    1
    57    35    33   am
    58    89    88    2
    59     2     3    1
    60    49    47   ar
    61    49    50   ar
    62    96    88   am
    63    51    52    1
    64    47    45   ar
    65    52    55    1
    66    50    48   ar
    67    88    87    1
    68    34    33    2
    69    19    18    2
    70     4     3    2
    71    33    32    1
    72    45    44    1
    73    45    46   ar
    74    20    21    1
    75    20    17    1
    76    23    21   am
    77    48    46   ar
    78     8     7    2
    79    86    87    1
    80    21    22    2
    81    55    56    1
    82    87    90    1
    83    18    17    1
    84    32    31    1
    85    17    16    1
    86     7    16   am
    87     7     6    1
    88    56    57    1
    89    90    91    1
    90    31    26   am
    91     9     6    1
    92     9    10    1
    93    58    57   ar
    94    57    59   ar
    95     5     6    1
    96    91    92   ar
    97    91    93   ar
    98    11    10   ar
    99    11    13   ar
   100    92    94   ar
   101    93    95   ar
   102    10    12   ar
   103    26    27    2
   104    26    25    1
   105    94    95   ar
   106    24    30    1
   107    24    25    1
   108    13    15   ar
   109    30    29    1
   110    25    28    1
   111    12    14   ar
   112    15    14   ar
   113    28    29    1
