@<TRIPOS>MOLECULE
tmp/1rvxI00.pdb
 126 119 0 0 0
SMALL
GASTEIGER

@<TRIPOS>ATOM
      1  N         43.7700   37.5780   65.0320 N.3    91  TYR91      -0.1241
      2  CA        44.4280   38.0590   63.8230 C.3    91  TYR91       0.1605
      3  C         45.2600   39.2540   64.3310 C.2    91  TYR91       0.2264
      4  O         44.7170   40.1860   64.9280 O.2    91  TYR91      -0.2867
      5  CB        43.4120   38.5160   62.7780 C.3    91  TYR91       0.0534
      6  CG        44.0340   38.6520   61.4110 C.ar   91  TYR91      -0.0201
      7  CD1       44.0740   37.5680   60.5310 C.ar   91  TYR91      -0.0009
      8  CD2       44.6440   39.8440   61.0190 C.ar   91  TYR91      -0.0009
      9  CE1       44.7100   37.6660   59.2930 C.ar   91  TYR91       0.0417
     10  CE2       45.2840   39.9550   59.7870 C.ar   91  TYR91       0.0417
     11  CZ        45.3130   38.8630   58.9280 C.ar   91  TYR91       0.1957
     12  OH        45.9460   38.9720   57.7130 O.3    91  TYR91      -0.2866
     13  N         35.1350   34.7140   54.2840 N.3   130  GLY130     -0.1210
     14  CA        36.5400   34.8330   54.6330 C.3   130  GLY130      0.1956
     15  C         36.8880   34.3100   56.0170 C.2   130  GLY130      0.2612
     16  O         36.2170   34.6260   56.9980 O.2   130  GLY130     -0.2717
     17  N         37.9390   33.4980   56.0940 N.am  131  VAL131     -0.1965
     18  CA        38.3920   32.9330   57.3580 C.3   131  VAL131      0.1727
     19  C         39.9130   33.0090   57.3960 C.2   131  VAL131      0.2617
     20  O         40.5350   33.4400   56.4310 O.2   131  VAL131     -0.2715
     21  CB        37.9460   31.4590   57.5240 C.3   131  VAL131      0.0290
     22  CG1       36.4250   31.3830   57.6140 C.3   131  VAL131      0.0023
     23  CG2       38.4550   30.6210   56.3600 C.3   131  VAL131      0.0023
     24  N         40.5110   32.5990   58.5090 N.am  132  THR132     -0.1937
     25  CA        41.9600   32.6550   58.6350 C.3   132  THR132      0.2028
     26  C         42.4560   31.5820   59.5750 C.2   132  THR132      0.2642
     27  O         41.7370   31.1690   60.4760 O.2   132  THR132     -0.2714
     28  CB        42.4250   34.0360   59.1750 C.3   132  THR132      0.1808
     29  OG1       43.8260   33.9950   59.4730 O.3   132  THR132     -0.2208
     30  CG2       41.6650   34.4000   60.4340 C.3   132  THR132      0.0379
     31  N         43.6860   31.1300   59.3630 N.am  133  ALA133     -0.1977
     32  CA        44.2750   30.1100   60.2250 C.3   133  ALA133      0.1597
     33  C         44.6960   30.7370   61.5530 C.2   133  ALA133      0.2287
     34  O         44.9830   30.0260   62.5190 O.2   133  ALA133     -0.2864
     35  CB        45.4880   29.4660   59.5430 C.3   133  ALA133      0.0319
     36  N         40.5410   26.6920   59.7210 N.3   141  SER141     -0.1217
     37  CA        40.5440   28.1450   59.6670 C.3   141  SER141      0.1889
     38  C         39.1330   28.6390   59.9210 C.2   141  SER141      0.2288
     39  O         38.1780   28.1290   59.3410 O.2   141  SER141     -0.2866
     40  CB        41.0230   28.6330   58.3000 C.3   141  SER141      0.2089
     41  OG        42.3570   28.2250   58.0680 O.3   141  SER141     -0.2183
     42  N         34.2090   38.9290   57.6670 N.3   149  TRP149     -0.1241
     43  CA        35.2550   39.3560   56.7620 C.3   149  TRP149      0.1605
     44  C         34.6420   39.4760   55.3710 C.2   149  TRP149      0.2264
     45  O         34.3100   38.4670   54.7520 O.2   149  TRP149     -0.2867
     46  CB        36.3790   38.3300   56.7310 C.3   149  TRP149      0.0550
     47  CG        37.6360   38.8550   56.1510 C.ar  149  TRP149      0.0003
     48  CD1       37.7700   39.9050   55.2850 C.ar  149  TRP149      0.0946
     49  CD2       38.9560   38.3610   56.3950 C.ar  149  TRP149      0.0152
     50  NE1       39.1010   40.0990   54.9800 N.ar  149  TRP149     -0.2442
     51  CE2       39.8480   39.1640   55.6480 C.ar  149  TRP149      0.0810
     52  CE3       39.4730   37.3180   57.1730 C.ar  149  TRP149      0.0012
     53  CZ2       41.2300   38.9570   55.6590 C.ar  149  TRP149      0.0191
     54  CZ3       40.8500   37.1120   57.1840 C.ar  149  TRP149      0.0001
     55  CH2       41.7110   37.9300   56.4320 C.ar  149  TRP149      0.0015
     56  N         34.7400   40.3540   51.3650 N.3   151  THR151     -0.1218
     57  CA        35.7010   40.3350   50.2740 C.3   151  THR151      0.1862
     58  C         34.9880   40.4450   48.9320 C.2   151  THR151      0.2287
     59  O         33.7580   40.4650   48.8560 O.2   151  THR151     -0.2866
     60  CB        36.5460   39.0410   50.2660 C.3   151  THR151      0.1770
     61  OG1       35.6790   37.9030   50.1950 O.3   151  THR151     -0.2211
     62  CG2       37.4040   38.9510   51.5130 C.3   151  THR151      0.0375
     63  N         41.1140   45.6700   57.7780 N.3   179  HIS179     -0.1241
     64  CA        42.2040   44.7900   57.3830 C.3   179  HIS179      0.1621
     65  C         43.2540   45.5180   56.5540 C.2   179  HIS179      0.2264
     66  O         42.9210   46.3500   55.7110 O.2   179  HIS179     -0.2867
     67  CB        41.6580   43.5950   56.5990 C.3   179  HIS179      0.0745
     68  CG        42.7210   42.6590   56.1270 C.ar  179  HIS179      0.0817
     69  ND1       42.9870   42.4530   54.7910 N.ar  179  HIS179     -0.2268
     70  CD2       43.6340   41.9300   56.8110 C.ar  179  HIS179      0.1154
     71  CE1       44.0210   41.6420   54.6720 C.ar  179  HIS179      0.1986
     72  NE2       44.4340   41.3100   55.8830 N.ar  179  HIS179     -0.2212
     73  N         49.5920   42.9630   53.3080 N.3   182  PRO182     -0.2116
     74  CA        51.0320   43.2380   53.3120 C.3   182  PRO182      0.1372
     75  C         51.5730   43.6720   51.9420 C.2   182  PRO182      0.2244
     76  O         52.7060   44.1480   51.8320 O.2   182  PRO182     -0.2868
     77  CB        51.6260   41.9160   53.7820 C.3   182  PRO182      0.0268
     78  CG        50.7140   40.9140   53.1610 C.3   182  PRO182      0.0207
     79  CD        49.3370   41.5130   53.4100 C.3   182  PRO182      0.0892
     80  N         47.6870   41.3100   47.1450 N.3   186  GLU186     -0.1245
     81  CA        46.6510   40.8060   48.0360 C.3   186  GLU186      0.1567
     82  C         45.4910   41.7910   48.1830 C.2   186  GLU186      0.2260
     83  O         44.3350   41.3860   48.2730 O.2   186  GLU186     -0.2867
     84  CB        47.2540   40.4950   49.3990 C.3   186  GLU186      0.0388
     85  CG        46.2440   40.0220   50.4080 C.3   186  GLU186      0.1160
     86  CD        46.8690   39.7620   51.7510 C.2   186  GLU186      0.3649
     87  OE1       47.6290   38.7730   51.8770 O.co2 186  GLU186     -0.2457
     88  OE2       46.6060   40.5590   52.6760 O.co2 186  GLU186     -0.2457
     89  N         41.5690   40.4770   47.1150 N.3   190  LEU190     -0.1245
     90  CA        40.6000   40.4730   48.2030 C.3   190  LEU190      0.1561
     91  C         39.5520   41.5640   48.0620 C.2   190  LEU190      0.2260
     92  O         38.3790   41.3310   48.3390 O.2   190  LEU190     -0.2867
     93  CB        41.2910   40.6330   49.5600 C.3   190  LEU190      0.0270
     94  CG        42.0920   39.4520   50.1090 C.3   190  LEU190      0.0019
     95  CD1       42.5910   39.7860   51.5020 C.3   190  LEU190      0.0001
     96  CD2       41.2180   38.2160   50.1460 C.3   190  LEU190      0.0001
     97  N         55.8750   38.3910   60.4730 N.3   218  LYS218     -0.1245
     98  CA        54.7210   37.5340   60.7040 C.3   218  LYS218      0.1561
     99  C         54.4050   37.3730   62.1760 C.2   218  LYS218      0.2260
    100  O         55.2920   37.1850   63.0000 O.2   218  LYS218     -0.2867
    101  CB        54.9250   36.1510   60.0810 C.3   218  LYS218      0.0271
    102  CG        54.7770   36.1140   58.5750 C.3   218  LYS218      0.0035
    103  CD        54.8480   34.6810   58.0700 C.3   218  LYS218      0.0206
    104  CE        54.6210   34.6080   56.5750 C.3   218  LYS218      0.1093
    105  NZ        54.5480   33.1960   56.0990 N.3   218  LYS218     -0.1314
    106  N         51.7220   33.7370   62.0990 N.3   221  ASP221     -0.1225
    107  CA        51.8900   33.4130   60.6880 C.3   221  ASP221      0.1805
    108  C         51.2510   34.3720   59.7070 C.2   221  ASP221      0.2597
    109  O         51.0840   34.0380   58.5370 O.2   221  ASP221     -0.2718
    110  CB        51.3810   32.0070   60.3930 C.3   221  ASP221      0.1424
    111  CG        52.5070   31.0180   60.2340 C.2   221  ASP221      0.3668
    112  OD1       53.1190   30.6510   61.2640 O.co2 221  ASP221     -0.2456
    113  OD2       52.7900   30.6250   59.0780 O.co2 221  ASP221     -0.2456
    114  N         50.8910   35.5600   60.1710 N.am  222  GLN222     -0.1979
    115  CA        50.2790   36.5350   59.2820 C.3   222  GLN222      0.1601
    116  C         51.1250   37.7930   59.1770 C.2   222  GLN222      0.2287
    117  O         51.5090   38.3870   60.1830 O.2   222  GLN222     -0.2864
    118  CB        48.8740   36.8930   59.7680 C.3   222  GLN222      0.0394
    119  CG        47.9080   35.7120   59.8000 C.3   222  GLN222      0.0908
    120  CD        47.8720   34.9510   58.4890 C.2   222  GLN222      0.2608
    121  OE1       47.6570   35.5290   57.4250 O.2   222  GLN222     -0.2717
    122  NE2       48.0850   33.6440   58.5600 N.am  222  GLN222     -0.0878
    123  N         49.9440   40.1810   57.4900 N.3   224  GLY224     -0.1225
    124  CA        48.8980   41.1820   57.4230 C.3   224  GLY224      0.1811
    125  C         48.5180   41.6580   58.8100 C.2   224  GLY224      0.2280
    126  O         48.9900   41.1110   59.8120 O.2   224  GLY224     -0.2866
@<TRIPOS>BOND
     1    89    90    1
     2    80    81    1
     3    81    82    1
     4    81    84    1
     5    91    90    1
     6    91    92    2
     7    82    83    2
     8    90    93    1
     9    59    58    2
    10    58    57    1
    11    84    85    1
    12    93    94    1
    13    94    96    1
    14    94    95    1
    15    61    60    1
    16    60    57    1
    17    60    62    1
    18    57    56    1
    19    85    86    1
    20    86    87   ar
    21    86    88   ar
    22    76    75    2
    23    75    74    1
    24    78    79    1
    25    78    77    1
    26    73    74    1
    27    73    79    1
    28    74    77    1
    29    13    14    1
    30    14    15    1
    31    71    69   ar
    32    71    72   ar
    33    45    44    2
    34    69    68   ar
    35    50    48   ar
    36    50    51   ar
    37    48    47   ar
    38    44    43    1
    39    51    53   ar
    40    51    49   ar
    41    53    55   ar
    42    66    65    2
    43    72    70   ar
    44    15    17   am
    45    15    16    2
    46    17    18    1
    47   105   104    1
    48    68    67    1
    49    68    70   ar
    50    47    49   ar
    51    47    46    1
    52    23    21    1
    53    49    52   ar
    54    20    19    2
    55    55    54   ar
    56    65    64    1
    57   104   103    1
    58    67    64    1
    59    46    43    1
    60    43    42    1
    61    52    54   ar
    62    18    19    1
    63    18    21    1
    64    64    63    1
    65    19    24   am
    66   124   123    1
    67   124   125    1
    68   121   120    2
    69    21    22    1
    70    12    11    1
    71    41    40    1
    72   103   102    1
    73    40    37    1
    74   120   122   am
    75   120   119    1
    76    24    25    1
    77   109   108    2
    78   102   101    1
    79    25    28    1
    80    25    26    1
    81   125   126    2
    82    11     9   ar
    83    11    10   ar
    84   113   111   ar
    85    28    29    1
    86    28    30    1
    87   116   115    1
    88   116   117    2
    89   115   118    1
    90   115   114    1
    91     9     7   ar
    92    39    38    2
    93    31    26   am
    94    31    32    1
    95    35    32    1
    96    26    27    2
    97    37    36    1
    98    37    38    1
    99   108   114   am
   100   108   107    1
   101   118   119    1
   102    10     8   ar
   103   101    98    1
   104    32    33    1
   105   111   110    1
   106   111   112   ar
   107   110   107    1
   108    97    98    1
   109     7     6   ar
   110   107   106    1
   111    98    99    1
   112     8     6   ar
   113     6     5    1
   114    33    34    2
   115    99   100    2
   116     5     2    1
   117     2     3    1
   118     2     1    1
   119     3     4    2
