@<TRIPOS>MOLECULE
tmp/1rvyA00.pdb
 148 141 0 0 0
SMALL
GASTEIGER

@<TRIPOS>ATOM
      1  N         49.1380   90.5930   69.9090 N.3    39  SER39      -0.1217
      2  CA        48.4540   89.5050   69.2330 C.3    39  SER39       0.1889
      3  C         47.0630   89.8130   68.7140 C.2    39  SER39       0.2288
      4  O         46.4450   88.9820   68.0580 O.2    39  SER39      -0.2866
      5  CB        48.4160   88.2770   70.1540 C.3    39  SER39       0.2089
      6  OG        48.0880   88.6320   71.4860 O.3    39  SER39      -0.2183
      7  N         43.5310   75.9060   65.5370 N.3   105  SER105     -0.1202
      8  CA        44.1040   77.1280   66.0510 C.3   105  SER105      0.2020
      9  C         45.6280   77.0160   66.0590 C.2   105  SER105      0.2619
     10  O         46.1890   76.0320   65.5740 O.2   105  SER105     -0.2717
     11  CB        43.5530   77.3780   67.4540 C.3   105  SER105      0.2103
     12  OG        43.5650   78.7540   67.7710 O.3   105  SER105     -0.2182
     13  N         46.2950   78.0270   66.6000 N.am  106  GLY106     -0.1942
     14  CA        47.7450   78.0120   66.6300 C.3   106  GLY106      0.2014
     15  C         48.3530   76.8700   67.4260 C.2   106  GLY106      0.2640
     16  O         49.1290   76.0690   66.9080 O.2   106  GLY106     -0.2714
     17  N         48.0020   76.7980   68.7000 N.am  107  SER107     -0.1936
     18  CA        48.5300   75.7630   69.5580 C.3   107  SER107      0.2040
     19  C         48.3380   74.3760   68.9440 C.2   107  SER107      0.2485
     20  O         49.2700   73.5700   68.9170 O.2   107  SER107     -0.2729
     21  CB        47.8700   75.8700   70.9280 C.3   107  SER107      0.2129
     22  OG        48.0720   77.1730   71.4580 O.3   107  SER107     -0.2179
     23  N         47.1300   74.0770   68.4350 N.am  108  PRO108     -0.2726
     24  CA        46.8890   72.7640   67.8260 C.3   108  PRO108      0.1402
     25  C         47.8470   72.4620   66.6770 C.2   108  PRO108      0.2269
     26  O         48.3030   71.3380   66.5270 O.2   108  PRO108     -0.2865
     27  CB        45.4410   72.8670   67.3550 C.3   108  PRO108      0.0296
     28  CG        44.8250   73.7300   68.3880 C.3   108  PRO108      0.0237
     29  CD        45.8650   74.8220   68.5750 C.3   108  PRO108      0.0939
     30  N         50.9620   73.4520   66.2140 N.3   110  ASN110     -0.1240
     31  CA        52.2520   73.0490   66.7670 C.3   110  ASN110      0.1653
     32  C         52.2330   71.6130   67.2740 C.2   110  ASN110      0.2266
     33  O         53.1140   70.8130   66.9600 O.2   110  ASN110     -0.2867
     34  CB        52.6560   73.9470   67.9330 C.3   110  ASN110      0.1155
     35  CG        52.9280   75.3590   67.5120 C.2   110  ASN110      0.2627
     36  OD1       53.2800   75.6150   66.3670 O.2   110  ASN110     -0.2716
     37  ND2       52.7880   76.2910   68.4430 N.am  110  ASN110     -0.0877
     38  N         56.9900   80.9980   73.4600 N.3   134  HIS134     -0.1241
     39  CA        55.5940   80.6260   73.6570 C.3   134  HIS134      0.1621
     40  C         55.4330   79.3020   74.4060 C.2   134  HIS134      0.2264
     41  O         56.2550   78.4020   74.2550 O.2   134  HIS134     -0.2867
     42  CB        54.8850   80.5120   72.3150 C.3   134  HIS134      0.0745
     43  CG        53.3980   80.4070   72.4350 C.ar  134  HIS134      0.0817
     44  ND1       52.6050   81.4720   72.8040 N.ar  134  HIS134     -0.2268
     45  CD2       52.5640   79.3530   72.2860 C.ar  134  HIS134      0.1154
     46  CE1       51.3470   81.0770   72.8770 C.ar  134  HIS134      0.1986
     47  NE2       51.2950   79.7950   72.5670 N.ar  134  HIS134     -0.2212
     48  N         53.6070   76.7180   73.9470 N.3   136  THR136     -0.1203
     49  CA        53.6700   75.5900   73.0240 C.3   136  THR136      0.1994
     50  C         55.0660   75.1910   72.5790 C.2   136  THR136      0.2617
     51  O         55.2320   74.1540   71.9350 O.2   136  THR136     -0.2717
     52  CB        52.8320   75.8550   71.7770 C.3   136  THR136      0.1784
     53  OG1       53.3510   76.9980   71.0920 O.3   136  THR136     -0.2211
     54  CG2       51.3820   76.1010   72.1640 C.3   136  THR136      0.0376
     55  N         56.0580   76.0160   72.9120 N.am  137  HIS137     -0.1975
     56  CA        57.4530   75.7430   72.5640 C.3   137  HIS137      0.1656
     57  C         58.1340   75.1070   73.7510 C.2   137  HIS137      0.2291
     58  O         59.3350   74.8360   73.7260 O.2   137  HIS137     -0.2864
     59  CB        58.1920   77.0250   72.2200 C.3   137  HIS137      0.0771
     60  CG        57.6100   77.7510   71.0610 C.ar  137  HIS137      0.0820
     61  ND1       58.0830   78.9730   70.6390 N.ar  137  HIS137     -0.2267
     62  CD2       56.5840   77.4340   70.2390 C.ar  137  HIS137      0.1154
     63  CE1       57.3690   79.3810   69.6050 C.ar  137  HIS137      0.1986
     64  NE2       56.4530   78.4640   69.3420 N.ar  137  HIS137     -0.2212
     65  N         58.6160   83.3390   68.1130 N.3   188  THR188     -0.1203
     66  CA        58.5300   84.1000   69.3510 C.3   188  THR188      0.1994
     67  C         57.1670   84.7150   69.6160 C.2   188  THR188      0.2618
     68  O         56.4080   84.9710   68.6940 O.2   188  THR188     -0.2717
     69  CB        59.5280   85.2560   69.3470 C.3   188  THR188      0.1784
     70  OG1       59.1120   86.2310   68.3830 O.3   188  THR188     -0.2211
     71  CG2       60.9180   84.7560   68.9980 C.3   188  THR188      0.0376
     72  N         56.8770   84.9640   70.8900 N.am  189  SER189     -0.1951
     73  CA        55.6210   85.5940   71.2950 C.3   189  SER189      0.1924
     74  C         55.8620   87.0590   71.6670 C.2   189  SER189      0.2314
     75  O         54.9420   87.8760   71.6380 O.2   189  SER189     -0.2863
     76  CB        55.0000   84.8660   72.4900 C.3   189  SER189      0.2116
     77  OG        54.1020   83.8530   72.0660 O.3   189  SER189     -0.2180
     78  N         57.7180   79.0430   63.8380 N.3   214  ASP214     -0.1239
     79  CA        56.3870   79.3600   64.3240 C.3   214  ASP214      0.1674
     80  C         56.2470   80.8530   64.0970 C.2   214  ASP214      0.2266
     81  O         56.6440   81.6520   64.9380 O.2   214  ASP214     -0.2867
     82  CB        56.2870   79.0420   65.8110 C.3   214  ASP214      0.1410
     83  CG        54.8800   79.1080   66.3110 C.2   214  ASP214      0.3668
     84  OD1       54.0360   79.6830   65.5970 O.co2 214  ASP214     -0.2456
     85  OD2       54.6170   78.5990   67.4150 O.co2 214  ASP214     -0.2456
     86  N         53.5520   82.7150   63.9870 N.3   216  ALA216     -0.1231
     87  CA        52.2470   83.2400   64.3590 C.3   216  ALA216      0.1694
     88  C         52.1980   84.7640   64.4550 C.2   216  ALA216      0.2592
     89  O         51.2440   85.3830   64.0010 O.2   216  ALA216     -0.2718
     90  CB        51.7920   82.6270   65.6610 C.3   216  ALA216      0.0304
     91  N         53.2250   85.3740   65.0270 N.am  217  HIS217     -0.1976
     92  CA        53.2350   86.8240   65.1720 C.3   217  HIS217      0.1656
     93  C         53.6140   87.6440   63.9510 C.2   217  HIS217      0.2291
     94  O         53.2120   88.7970   63.8400 O.2   217  HIS217     -0.2864
     95  CB        54.1560   87.2410   66.3200 C.3   217  HIS217      0.0771
     96  CG        53.4220   87.6060   67.5690 C.ar  217  HIS217      0.0820
     97  ND1       53.0140   86.6700   68.4940 N.ar  217  HIS217     -0.2267
     98  CD2       52.9460   88.7950   68.0010 C.ar  217  HIS217      0.1154
     99  CE1       52.3140   87.2670   69.4390 C.ar  217  HIS217      0.1986
    100  NE2       52.2570   88.5570   69.1630 N.ar  217  HIS217     -0.2212
    101  N         49.4130   80.8530   63.0460 N.3   240  THR240     -0.1218
    102  CA        48.0270   81.0720   63.4060 C.3   240  THR240      0.1862
    103  C         47.5400   81.7930   62.1580 C.2   240  THR240      0.2287
    104  O         48.3610   82.1510   61.3090 O.2   240  THR240     -0.2866
    105  CB        47.9100   82.0000   64.6240 C.3   240  THR240      0.1770
    106  OG1       48.8720   83.0500   64.5120 O.3   240  THR240     -0.2211
    107  CG2       48.1710   81.2440   65.9020 C.3   240  THR240      0.0375
    108  N         45.1840   84.3600   62.4890 N.3   242  HIS242     -0.1226
    109  CA        44.7370   85.6700   62.9370 C.3   242  HIS242      0.1752
    110  C         45.9690   86.5270   63.2430 C.2   242  HIS242      0.2595
    111  O         46.9780   86.4220   62.5490 O.2   242  HIS242     -0.2718
    112  CB        43.8250   85.5510   64.1590 C.3   242  HIS242      0.0759
    113  CG        44.3140   84.5960   65.2070 C.ar  242  HIS242      0.0818
    114  ND1       44.4330   83.2430   64.9830 N.ar  242  HIS242     -0.2268
    115  CD2       44.6530   84.7920   66.5050 C.ar  242  HIS242      0.1154
    116  CE1       44.8180   82.6460   66.0960 C.ar  242  HIS242      0.1986
    117  NE2       44.9580   83.5630   67.0340 N.ar  242  HIS242     -0.2212
    118  N         45.9030   87.3690   64.2680 N.am  243  LYS243     -0.1980
    119  CA        47.0450   88.2110   64.6010 C.3   243  LYS243      0.1596
    120  C         47.4200   89.1060   63.4150 C.2   243  LYS243      0.2287
    121  O         46.5680   89.8200   62.8940 O.2   243  LYS243     -0.2864
    122  CB        48.2370   87.3460   65.0180 C.3   243  LYS243      0.0298
    123  CG        47.8980   86.3510   66.1240 C.3   243  LYS243      0.0038
    124  CD        49.1460   85.8170   66.8200 C.3   243  LYS243      0.0206
    125  CE        48.7900   84.8490   67.9620 C.3   243  LYS243      0.1093
    126  NZ        49.9660   84.4310   68.7950 N.3   243  LYS243     -0.1314
    127  N         40.2350   82.8980   63.7630 N.3   249  ARG249     -0.1245
    128  CA        41.0950   82.0170   64.5420 C.3   249  ARG249      0.1563
    129  C         41.1860   80.5980   63.9740 C.2   249  ARG249      0.2260
    130  O         40.1960   79.8690   63.9000 O.2   249  ARG249     -0.2867
    131  CB        40.6230   82.0020   66.0030 C.3   249  ARG249      0.0307
    132  CG        41.0350   83.2660   66.7450 C.3   249  ARG249      0.0489
    133  CD        40.2180   83.5170   67.9800 C.3   249  ARG249      0.2205
    134  NE        40.5090   84.8390   68.5150 N.pl3 249  ARG249     -0.0865
    135  CZ        41.6330   85.1630   69.1400 C.cat 249  ARG249      0.5346
    136  NH1       42.5820   84.2510   69.3200 N.pl3 249  ARG249      0.1354
    137  NH2       41.8080   86.4040   69.5740 N.pl3 249  ARG249      0.1354
    138  N         54.5110   94.9830   76.6260 N.3   381  ARG381     -0.1245
    139  CA        54.6340   94.6560   75.2170 C.3   381  ARG381      0.1563
    140  C         53.6260   95.5180   74.4920 C.2   381  ARG381      0.2260
    141  O         52.4920   95.6680   74.9440 O.2   381  ARG381     -0.2867
    142  CB        54.3250   93.1830   74.9680 C.3   381  ARG381      0.0307
    143  CG        54.5850   92.7460   73.5340 C.3   381  ARG381      0.0489
    144  CD        54.1800   91.3010   73.3220 C.3   381  ARG381      0.2205
    145  NE        52.7690   91.1050   73.6300 N.pl3 381  ARG381     -0.0865
    146  CZ        52.1150   89.9660   73.4460 C.cat 381  ARG381      0.5346
    147  NH1       52.7360   88.9020   72.9520 N.pl3 381  ARG381      0.1354
    148  NH2       50.8350   89.8940   73.7570 N.pl3 381  ARG381      0.1354
@<TRIPOS>BOND
     1   104   103    2
     2   103   102    1
     3   108   109    1
     4   111   110    2
     5   121   120    2
     6   109   110    1
     7   109   112    1
     8   101   102    1
     9   110   118   am
    10   102   105    1
    11   120   119    1
    12   127   128    1
    13    78    79    1
    14    94    93    2
    15   130   129    2
    16    93    92    1
    17   129   128    1
    18    86    87    1
    19    89    88    2
    20    80    79    1
    21    80    81    2
    22   112   113    1
    23   118   119    1
    24    79    82    1
    25    87    88    1
    26    87    90    1
    27    88    91   am
    28   106   105    1
    29   128   131    1
    30   119   122    1
    31   105   107    1
    32   114   113   ar
    33   114   116   ar
    34   122   123    1
    35    91    92    1
    36    92    95    1
    37   113   115   ar
    38     7     8    1
    39    10     9    2
    40    84    83   ar
    41    82    83    1
    42   131   132    1
    43     8     9    1
    44     8    11    1
    45     9    13   am
    46   116   117   ar
    47   123   124    1
    48    30    31    1
    49    83    85   ar
    50    95    96    1
    51    36    35    2
    52   115   117   ar
    53    26    25    2
    54    13    14    1
    55    14    15    1
    56    25    24    1
    57   132   133    1
    58    31    32    1
    59    31    34    1
    60   124   125    1
    61    16    15    2
    62    33    32    2
    63    27    24    1
    64    27    28    1
    65    15    17   am
    66    11    12    1
    67    35    34    1
    68    35    37   am
    69    96    98   ar
    70    96    97   ar
    71    24    23    1
    72   125   126    1
    73   133   134    1
    74    98   100   ar
    75     4     3    2
    76    65    66    1
    77    70    69    1
    78    28    29    1
    79    23    29    1
    80    23    19   am
    81    97    99   ar
    82   134   135    2
    83    68    67    2
    84    17    18    1
    85     3     2    1
    86    20    19    2
    87    19    18    1
    88    71    69    1
    89   135   136    1
    90   135   137    1
    91   100    99   ar
    92     2     1    1
    93     2     5    1
    94    64    63   ar
    95    64    62   ar
    96    69    66    1
    97    66    67    1
    98    18    21    1
    99    63    61   ar
   100    67    72   am
   101     5     6    1
   102    62    60   ar
   103    61    60   ar
   104    72    73    1
   105    21    22    1
   106    60    59    1
   107    53    52    1
   108    73    74    1
   109    73    76    1
   110    75    74    2
   111    52    54    1
   112    52    49    1
   113    51    50    2
   114    77    76    1
   115    59    56    1
   116    45    43   ar
   117    45    47   ar
   118    42    43    1
   119    42    39    1
   120    43    44   ar
   121    56    55    1
   122    56    57    1
   123    47    46   ar
   124    50    55   am
   125    50    49    1
   126    44    46   ar
   127   147   146    1
   128    49    48    1
   129   144   143    1
   130   144   145    1
   131   146   145    2
   132   146   148    1
   133    38    39    1
   134   143   142    1
   135    39    40    1
   136    58    57    2
   137    41    40    2
   138   140   141    2
   139   140   139    1
   140   142   139    1
   141   139   138    1
