@<TRIPOS>MOLECULE
tmp/1rvzK00.pdb
 139 133 0 0 0
SMALL
GASTEIGER

@<TRIPOS>ATOM
      1  N        -12.7750   46.2300   24.2790 N.3    91  TYR91      -0.1241
      2  CA       -12.6360   45.3950   23.0950 C.3    91  TYR91       0.1605
      3  C        -11.9850   44.1040   23.6200 C.2    91  TYR91       0.2264
      4  O        -10.8870   44.1330   24.1710 O.2    91  TYR91      -0.2867
      5  CB       -11.7410   46.0590   22.0590 C.3    91  TYR91       0.0534
      6  CG       -11.9410   45.4860   20.6810 C.ar   91  TYR91      -0.0201
      7  CD1      -12.8760   46.0390   19.8010 C.ar   91  TYR91      -0.0009
      8  CD2      -11.2230   44.3710   20.2630 C.ar   91  TYR91      -0.0009
      9  CE1      -13.0870   45.4880   18.5350 C.ar   91  TYR91       0.0417
     10  CE2      -11.4220   43.8120   19.0070 C.ar   91  TYR91       0.0417
     11  CZ       -12.3530   44.3750   18.1460 C.ar   91  TYR91       0.1957
     12  OH       -12.5180   43.8310   16.8970 O.3    91  TYR91      -0.2866
     13  N        -10.8150   55.2020   13.4990 N.3   130  GLY130     -0.1210
     14  CA       -11.3870   53.8940   13.7770 C.3   130  GLY130      0.1956
     15  C        -12.1210   53.9110   15.1050 C.2   130  GLY130      0.2612
     16  O        -11.6080   54.4410   16.0980 O.2   130  GLY130     -0.2717
     17  N        -13.3080   53.3090   15.1330 N.am  131  VAL131     -0.1965
     18  CA       -14.1430   53.3090   16.3280 C.3   131  VAL131      0.1727
     19  C        -14.8300   51.9410   16.4960 C.2   131  VAL131      0.2617
     20  O        -14.8140   51.1350   15.5720 O.2   131  VAL131     -0.2715
     21  CB       -15.1670   54.4810   16.1800 C.3   131  VAL131      0.0290
     22  CG1      -16.5870   53.9760   16.1670 C.3   131  VAL131      0.0023
     23  CG2      -14.9390   55.5050   17.2580 C.3   131  VAL131      0.0023
     24  N        -15.4010   51.6550   17.6680 N.am  132  THR132     -0.1937
     25  CA       -16.0790   50.3710   17.8740 C.3   132  THR132      0.2028
     26  C        -17.2440   50.4450   18.8540 C.2   132  THR132      0.2642
     27  O        -17.1780   51.1580   19.8570 O.2   132  THR132     -0.2714
     28  CB       -15.1160   49.2620   18.3870 C.3   132  THR132      0.1808
     29  OG1      -15.8830   48.1030   18.7390 O.3   132  THR132     -0.2208
     30  CG2      -14.3560   49.7240   19.6280 C.3   132  THR132      0.0379
     31  N        -18.3040   49.6920   18.5730 N.am  133  ALA133     -0.1977
     32  CA       -19.4790   49.6860   19.4420 C.3   133  ALA133      0.1597
     33  C        -19.1720   48.9720   20.7510 C.2   133  ALA133      0.2287
     34  O        -19.9560   49.0240   21.7050 O.2   133  ALA133     -0.2864
     35  CB       -20.6570   49.0080   18.7390 C.3   133  ALA133      0.0319
     36  N        -20.6330   54.6490   19.0910 N.3   141  SER141     -0.1217
     37  CA       -19.3660   53.9350   18.9900 C.3   141  SER141      0.1889
     38  C        -18.2120   54.8990   19.2010 C.2   141  SER141      0.2288
     39  O        -18.2010   55.9950   18.6420 O.2   141  SER141     -0.2866
     40  CB       -19.2330   53.2610   17.6230 C.3   141  SER141      0.2089
     41  OG       -20.1300   52.1770   17.5050 O.3   141  SER141     -0.2183
     42  N         -6.8080   53.7290   16.9440 N.3   149  TRP149     -0.1241
     43  CA        -6.9600   52.6010   16.0450 C.3   149  TRP149      0.1605
     44  C         -6.5350   53.0630   14.6560 C.2   149  TRP149      0.2264
     45  O         -7.2670   53.7970   13.9990 O.2   149  TRP149     -0.2867
     46  CB        -8.4190   52.1390   16.0190 C.3   149  TRP149      0.0550
     47  CG        -8.6230   50.7640   15.4350 C.ar  149  TRP149      0.0003
     48  CD1       -7.8360   50.1390   14.5110 C.ar  149  TRP149      0.0946
     49  CD2       -9.7140   49.8700   15.6990 C.ar  149  TRP149      0.0152
     50  NE1       -8.3680   48.9130   14.1830 N.ar  149  TRP149     -0.2442
     51  CE2       -9.5220   48.7240   14.8960 C.ar  149  TRP149      0.0810
     52  CE3      -10.8390   49.9300   16.5330 C.ar  149  TRP149      0.0012
     53  CZ2      -10.4110   47.6430   14.9010 C.ar  149  TRP149      0.0191
     54  CZ3      -11.7270   48.8530   16.5390 C.ar  149  TRP149      0.0001
     55  CH2      -11.5050   47.7260   15.7260 C.ar  149  TRP149      0.0015
     56  N         -5.7690   52.6480   10.6680 N.3   151  THR151     -0.1218
     57  CA        -6.2440   51.8240    9.5650 C.3   151  THR151      0.1862
     58  C         -5.7990   52.3740    8.2180 C.2   151  THR151      0.2287
     59  O         -5.1990   53.4470    8.1250 O.2   151  THR151     -0.2866
     60  CB        -7.7790   51.6800    9.5550 C.3   151  THR151      0.1770
     61  OG1       -8.3860   52.9740    9.5630 O.3   151  THR151     -0.2211
     62  CG2       -8.2510   50.8850   10.7590 C.3   151  THR151      0.0375
     63  N         -4.4500   44.4820   17.0490 N.3   179  HIS179     -0.1241
     64  CA        -5.7680   43.9830   16.7020 C.3   179  HIS179      0.1621
     65  C         -5.6500   42.7050   15.8830 C.2   179  HIS179      0.2264
     66  O         -4.7570   42.5750   15.0390 O.2   179  HIS179     -0.2867
     67  CB        -6.5410   45.0370   15.9110 C.3   179  HIS179      0.0745
     68  CG        -7.9090   44.5940   15.5060 C.ar  179  HIS179      0.0817
     69  ND1       -8.2530   44.3600   14.1940 N.ar  179  HIS179     -0.2268
     70  CD2       -8.9980   44.2700   16.2450 C.ar  179  HIS179      0.1154
     71  CE1       -9.4910   43.9020   14.1390 C.ar  179  HIS179      0.1986
     72  NE2       -9.9660   43.8370   15.3710 N.ar  179  HIS179     -0.2212
     73  N        -10.9380   38.5040   12.6050 N.3   182  PRO182     -0.2116
     74  CA       -11.3750   37.1090   12.6790 C.3   182  PRO182      0.1372
     75  C        -11.2290   36.3780   11.3350 C.2   182  PRO182      0.2244
     76  O        -11.3700   35.1600   11.2700 O.2   182  PRO182     -0.2868
     77  CB       -12.8270   37.2350   13.1180 C.3   182  PRO182      0.0268
     78  CG       -13.2660   38.4660   12.3990 C.3   182  PRO182      0.0207
     79  CD       -12.0990   39.4100   12.6420 C.3   182  PRO182      0.0892
     80  N        -11.2960   40.7570    6.3720 N.3   186  GLU186     -0.1245
     81  CA       -11.2930   41.9230    7.2350 C.3   186  GLU186      0.1567
     82  C         -9.8750   42.4740    7.3820 C.2   186  GLU186      0.2260
     83  O         -9.6590   43.6850    7.3580 O.2   186  GLU186     -0.2867
     84  CB       -11.8570   41.5560    8.5960 C.3   186  GLU186      0.0388
     85  CG       -11.7600   42.6670    9.6030 C.3   186  GLU186      0.1160
     86  CD       -12.4370   42.3050   10.9000 C.2   186  GLU186      0.3649
     87  OE1      -13.6880   42.2580   10.9290 O.co2 186  GLU186     -0.2457
     88  OE2      -11.7120   42.0550   11.8860 O.co2 186  GLU186     -0.2457
     89  N         -9.1300   44.5880    4.1330 N.3   189  ASN189     -0.1225
     90  CA        -9.7580   45.8850    3.9360 C.3   189  ASN189      0.1785
     91  C         -9.4830   46.8550    5.0820 C.2   189  ASN189      0.2597
     92  O         -9.8020   48.0400    4.9860 O.2   189  ASN189     -0.2718
     93  CB       -11.2610   45.7340    3.6710 C.3   189  ASN189      0.1169
     94  CG       -11.9570   44.8990    4.7070 C.2   189  ASN189      0.2627
     95  OD1      -13.0510   44.3730    4.4700 O.2   189  ASN189     -0.2716
     96  ND2      -11.3400   44.7740    5.8740 N.am  189  ASN189     -0.0877
     97  N         -8.8710   46.3620    6.1570 N.am  190  LEU190     -0.1980
     98  CA        -8.5330   47.2330    7.2840 C.3   190  LEU190      0.1596
     99  C         -7.0700   47.6530    7.2380 C.2   190  LEU190      0.2287
    100  O         -6.7430   48.8050    7.4950 O.2   190  LEU190     -0.2864
    101  CB        -8.7860   46.5490    8.6290 C.3   190  LEU190      0.0297
    102  CG       -10.2150   46.3900    9.1390 C.3   190  LEU190      0.0022
    103  CD1      -10.1760   45.9180   10.5890 C.3   190  LEU190      0.0001
    104  CD2      -10.9440   47.7100    9.0300 C.3   190  LEU190      0.0001
    105  N        -17.9480   35.2310   19.8350 N.3   218  LYS218     -0.1245
    106  CA       -18.1010   36.6640   20.0130 C.3   218  LYS218      0.1561
    107  C        -18.1230   37.0400   21.4830 C.2   218  LYS218      0.2260
    108  O        -18.7590   36.3730   22.2940 O.2   218  LYS218     -0.2867
    109  CB       -19.3800   37.1600   19.3190 C.3   218  LYS218      0.0271
    110  CG       -19.2700   37.1710   17.8000 C.3   218  LYS218      0.0035
    111  CD       -20.5300   37.6890   17.1230 C.3   218  LYS218      0.0206
    112  CE       -20.3650   37.6480   15.6080 C.3   218  LYS218      0.1093
    113  NZ       -21.5520   38.1830   14.8850 N.3   218  LYS218     -0.1314
    114  N        -20.0100   41.1770   21.5370 N.3   221  ASP221     -0.1225
    115  CA       -20.4000   41.1680   20.1350 C.3   221  ASP221      0.1805
    116  C        -19.2380   41.2630   19.1450 C.2   221  ASP221      0.2598
    117  O        -19.4200   41.7120   18.0130 O.2   221  ASP221     -0.2718
    118  CB       -21.4100   42.2910   19.8700 C.3   221  ASP221      0.1424
    119  CG       -22.1450   42.1090   18.5580 C.2   221  ASP221      0.3668
    120  OD1      -22.5370   40.9580   18.2660 O.co2 221  ASP221     -0.2456
    121  OD2      -22.3370   43.1090   17.8240 O.co2 221  ASP221     -0.2456
    122  N        -18.0510   40.8280   19.5610 N.am  222  GLN222     -0.1965
    123  CA       -16.8750   40.8700   18.6880 C.3   222  GLN222      0.1733
    124  C        -16.1960   39.5040   18.5430 C.2   222  GLN222      0.2616
    125  O        -15.9830   38.8020   19.5330 O.2   222  GLN222     -0.2715
    126  CB       -15.8390   41.8570   19.2350 C.3   222  GLN222      0.0408
    127  CG       -16.3540   43.2630   19.4910 C.3   222  GLN222      0.0908
    128  CD       -16.8130   43.9670   18.2240 C.2   222  GLN222      0.2608
    129  OE1      -16.1150   43.9670   17.2120 O.2   222  GLN222     -0.2717
    130  NE2      -17.9850   44.5810   18.2820 N.am  222  GLN222     -0.0878
    131  N        -15.8630   39.1320   17.3090 N.am  223  ALA223     -0.1963
    132  CA       -15.1620   37.8770   17.0480 C.3   223  ALA223      0.1728
    133  C        -13.6850   38.2700   16.9590 C.2   223  ALA223      0.2616
    134  O        -12.7790   37.4360   17.0780 O.2   223  ALA223     -0.2715
    135  CB       -15.6250   37.2600   15.7400 C.3   223  ALA223      0.0334
    136  N        -13.4610   39.5600   16.7450 N.am  224  GLY224     -0.1955
    137  CA       -12.1090   40.0620   16.6820 C.3   224  GLY224      0.1869
    138  C        -11.5470   40.1170   18.0940 C.2   224  GLY224      0.2309
    139  O        -12.2700   39.9510   19.0800 O.2   224  GLY224     -0.2863
@<TRIPOS>BOND
     1    93    90    1
     2    93    94    1
     3    90    89    1
     4    90    91    1
     5    95    94    2
     6    94    96   am
     7    92    91    2
     8    91    97   am
     9    97    98    1
    10    80    81    1
    11    81    82    1
    12    81    84    1
    13    99    98    1
    14    99   100    2
    15    98   101    1
    16    83    82    2
    17    59    58    2
    18    58    57    1
    19    84    85    1
    20   101   102    1
    21   104   102    1
    22   102   103    1
    23    60    61    1
    24    60    57    1
    25    60    62    1
    26    57    56    1
    27    85    86    1
    28    86    87   ar
    29    86    88   ar
    30    76    75    2
    31    75    74    1
    32    78    79    1
    33    78    77    1
    34    73    79    1
    35    73    74    1
    36    74    77    1
    37    13    14    1
    38    14    15    1
    39    45    44    2
    40    71    69   ar
    41    71    72   ar
    42    50    48   ar
    43    50    51   ar
    44    69    68   ar
    45    48    47   ar
    46    44    43    1
    47   113   112    1
    48    51    53   ar
    49    51    49   ar
    50    53    55   ar
    51    66    65    2
    52    15    17   am
    53    15    16    2
    54    17    18    1
    55    72    70   ar
    56    47    49   ar
    57    47    46    1
    58    68    67    1
    59    68    70   ar
    60    20    19    2
    61   112   111    1
    62    49    52   ar
    63    55    54   ar
    64   135   132    1
    65    65    64    1
    66    67    64    1
    67    46    43    1
    68    43    42    1
    69    22    21    1
    70    21    18    1
    71    21    23    1
    72    18    19    1
    73    19    24   am
    74    52    54   ar
    75   137   136    1
    76   137   138    1
    77    64    63    1
    78   136   133   am
    79    12    11    1
    80   133   132    1
    81   133   134    2
    82   132   131    1
    83   111   110    1
    84   129   128    2
    85   131   124   am
    86    41    40    1
    87    40    37    1
    88    24    25    1
    89   110   109    1
    90   121   119   ar
    91    25    28    1
    92    25    26    1
    93   117   116    2
    94   138   139    2
    95    11     9   ar
    96    11    10   ar
    97   128   130   am
    98   128   127    1
    99   120   119   ar
   100    28    29    1
   101    28    30    1
   102     9     7   ar
   103   124   123    1
   104   124   125    2
   105   119   118    1
   106    31    26   am
   107    31    32    1
   108    39    38    2
   109   123   126    1
   110   123   122    1
   111    35    32    1
   112    26    27    2
   113    37    36    1
   114    37    38    1
   115    10     8   ar
   116   116   122   am
   117   116   115    1
   118   126   127    1
   119   109   106    1
   120    32    33    1
   121     7     6   ar
   122   105   106    1
   123   118   115    1
   124   106   107    1
   125   115   114    1
   126     8     6   ar
   127     6     5    1
   128    33    34    2
   129   107   108    2
   130     5     2    1
   131     2     3    1
   132     2     1    1
   133     3     4    2
