@<TRIPOS>MOLECULE
tmp/1rw8A00.pdb
 174 164 0 0 0
SMALL
GASTEIGER

@<TRIPOS>ATOM
      1  N         13.5900   18.1030    7.6520 N.3    12  ILE12      -0.1231
      2  CA        13.4740   17.9100    9.0840 C.3    12  ILE12       0.1692
      3  C         12.6400   16.6620    9.3510 C.2    12  ILE12       0.2593
      4  O         12.0880   16.5000   10.4500 O.2    12  ILE12      -0.2718
      5  CB        12.7570   19.1110    9.7360 C.3    12  ILE12       0.0266
      6  CG1       11.6500   19.6030    8.8110 C.3    12  ILE12       0.0019
      7  CG2       13.7610   20.2450   10.0170 C.3    12  ILE12       0.0020
      8  CD1       10.4430   20.1330    9.5460 C.3    12  ILE12       0.0001
      9  N         12.5480   15.8060    8.3270 N.am   13  GLY13      -0.1942
     10  CA        11.7320   14.6010    8.3800 C.3    13  GLY13       0.2014
     11  C         12.4570   13.2700    8.3700 C.2    13  GLY13       0.2638
     12  O         13.6910   13.1930    8.2650 O.2    13  GLY13      -0.2714
     13  N         11.6670   12.2040    8.4410 N.am   14  LYS14      -0.1977
     14  CA        12.1730   10.8300    8.5510 C.3    14  LYS14       0.1596
     15  C         12.5080   10.1160    7.2250 C.2    14  LYS14       0.2287
     16  O         13.5930   10.2880    6.6400 O.2    14  LYS14      -0.2864
     17  CB        11.1340    9.9980    9.3190 C.3    14  LYS14       0.0298
     18  CG         9.7290   10.4870    9.0670 C.3    14  LYS14       0.0038
     19  CD         8.6630    9.5070    9.4940 C.3    14  LYS14       0.0206
     20  CE         7.3720    9.8170    8.7550 C.3    14  LYS14       0.1093
     21  NZ         7.7210    9.8940    7.3110 N.3    14  LYS14      -0.1314
     22  N          9.5730   14.8660    5.1160 N.3    20  VAL20      -0.1245
     23  CA         9.1630   16.1400    5.6790 C.3    20  VAL20       0.1561
     24  C         10.1580   17.2690    5.4350 C.2    20  VAL20       0.2260
     25  O         11.3740   17.0680    5.3870 O.2    20  VAL20      -0.2867
     26  CB         8.8840   16.0020    7.2020 C.3    20  VAL20       0.0252
     27  CG1        8.2570   17.2790    7.7380 C.3    20  VAL20       0.0019
     28  CG2        7.9550   14.8240    7.4630 C.3    20  VAL20       0.0019
     29  N          5.3680   23.1030    7.9170 N.3    31  ALA31      -0.1245
     30  CA         5.9700   21.7950    7.6640 C.3    31  ALA31       0.1562
     31  C          5.2700   21.1760    6.4850 C.2    31  ALA31       0.2260
     32  O          4.0460   21.2830    6.3590 O.2    31  ALA31      -0.2867
     33  CB         5.8390   20.8910    8.8690 C.3    31  ALA31       0.0290
     34  N          5.0270   17.5300    4.1050 N.3    33  LYS33      -0.1245
     35  CA         5.2860   16.1080    3.8810 C.3    33  LYS33       0.1561
     36  C          4.9920   15.8230    2.3930 C.2    33  LYS33       0.2260
     37  O          3.8280   15.7890    1.9380 O.2    33  LYS33      -0.2867
     38  CB         4.3830   15.2530    4.7760 C.3    33  LYS33       0.0271
     39  CG         4.8020   13.7810    4.8780 C.3    33  LYS33       0.0035
     40  CD         4.0570   13.0710    6.0140 C.3    33  LYS33       0.0206
     41  CE         4.4520   11.6200    6.1230 C.3    33  LYS33       0.1093
     42  NZ         3.8900   10.9470    7.3120 N.3    33  LYS33      -0.1314
     43  N         -4.0430    9.8530    4.3550 N.3    46  GLU46      -0.1245
     44  CA        -3.6450   10.7070    5.4700 C.3    46  GLU46       0.1567
     45  C         -4.3910   12.0310    5.3690 C.2    46  GLU46       0.2260
     46  O         -4.7860   12.6060    6.3850 O.2    46  GLU46      -0.2867
     47  CB        -2.1230   10.9320    5.4750 C.3    46  GLU46       0.0388
     48  CG        -1.5710   11.2120    6.8610 C.3    46  GLU46       0.1160
     49  CD        -0.0550   11.3480    6.9100 C.2    46  GLU46       0.3649
     50  OE1        0.6510   10.7080    6.0980 O.co2  46  GLU46      -0.2457
     51  OE2        0.4330   12.0840    7.7910 O.co2  46  GLU46      -0.2457
     52  N         -7.1850   13.6650    8.2400 N.3    50  TYR50      -0.1241
     53  CA        -7.0840   15.0330    8.7330 C.3    50  TYR50       0.1605
     54  C         -8.2480   15.9110    8.2610 C.2    50  TYR50       0.2264
     55  O         -8.5340   16.9400    8.8760 O.2    50  TYR50      -0.2867
     56  CB        -5.7740   15.6570    8.2560 C.3    50  TYR50       0.0534
     57  CG        -4.5610   15.3530    9.1150 C.ar   50  TYR50      -0.0201
     58  CD1       -4.4290   15.9090   10.3920 C.ar   50  TYR50      -0.0009
     59  CD2       -3.5280   14.5440    8.6390 C.ar   50  TYR50      -0.0009
     60  CE1       -3.3000   15.6720   11.1700 C.ar   50  TYR50       0.0417
     61  CE2       -2.3990   14.2990    9.4100 C.ar   50  TYR50       0.0417
     62  CZ        -2.2880   14.8700   10.6780 C.ar   50  TYR50       0.1957
     63  OH        -1.1610   14.6610   11.4500 O.3    50  TYR50      -0.2866
     64  N         -1.8290   17.5120   15.4760 N.3    61  LEU61      -0.1245
     65  CA        -1.1060   18.3800   14.5340 C.3    61  LEU61       0.1561
     66  C         -2.0320   19.2310   13.6700 C.2    61  LEU61       0.2260
     67  O         -2.9000   18.7090   12.9610 O.2    61  LEU61      -0.2867
     68  CB        -0.1910   17.5580   13.6140 C.3    61  LEU61       0.0270
     69  CG         0.6360   18.3820   12.6190 C.3    61  LEU61       0.0019
     70  CD1        1.5600   19.3330   13.3950 C.3    61  LEU61       0.0001
     71  CD2        1.4470   17.4660   11.7210 C.3    61  LEU61       0.0001
     72  N         -3.4140   20.5720   10.8570 N.3    63  PHE63      -0.1241
     73  CA        -3.3720   20.2910    9.4210 C.3    63  PHE63       0.1605
     74  C         -3.7070   21.5630    8.6540 C.2    63  PHE63       0.2264
     75  O         -4.6190   22.3050    9.0240 O.2    63  PHE63      -0.2867
     76  CB        -4.3970   19.2070    9.0800 C.3    63  PHE63       0.0534
     77  CG        -4.5130   18.8960    7.6100 C.ar   63  PHE63      -0.0203
     78  CD1       -3.5350   18.1530    6.9520 C.ar   63  PHE63      -0.0042
     79  CD2       -5.6310   19.3130    6.8950 C.ar   63  PHE63      -0.0042
     80  CE1       -3.6730   17.8270    5.6030 C.ar   63  PHE63      -0.0003
     81  CE2       -5.7860   18.9940    5.5430 C.ar   63  PHE63      -0.0003
     82  CZ        -4.8050   18.2470    4.8930 C.ar   63  PHE63      -0.0000
     83  N          1.4910   17.5060    1.6800 N.3    79  LEU79      -0.1245
     84  CA         0.6810   17.5280    2.8700 C.3    79  LEU79       0.1561
     85  C          1.3090   18.6680    3.6650 C.2    79  LEU79       0.2260
     86  O          2.5030   18.6340    3.9650 O.2    79  LEU79      -0.2867
     87  CB         0.7770   16.1900    3.6070 C.3    79  LEU79       0.0270
     88  CG        -0.5920   15.4930    3.6690 C.3    79  LEU79       0.0019
     89  CD1       -0.4600   14.0000    3.4610 C.3    79  LEU79       0.0001
     90  CD2       -1.2360   15.7630    5.0120 C.3    79  LEU79       0.0001
     91  N          1.2900   21.3910    7.0760 N.3    81  SER81      -0.1202
     92  CA         0.8650   21.5490    8.4680 C.3    81  SER81       0.2020
     93  C          1.6520   22.6080    9.2230 C.2    81  SER81       0.2619
     94  O          2.5860   23.2200    8.6970 O.2    81  SER81      -0.2717
     95  CB         1.0330   20.2330    9.2260 C.3    81  SER81       0.2103
     96  OG         2.4070   20.0040    9.5430 O.3    81  SER81      -0.2182
     97  N          1.2780   22.8050   10.4810 N.am   82  ASP82      -0.1959
     98  CA         1.9740   23.7580   11.3200 C.3    82  ASP82       0.1840
     99  C          3.3600   23.1870   11.5040 C.2    82  ASP82       0.2622
    100  O          3.5480   21.9710   11.4810 O.2    82  ASP82      -0.2715
    101  CB         1.3140   23.8860   12.6890 C.3    82  ASP82       0.1450
    102  CG        -0.0550   24.4930   12.6220 C.2    82  ASP82       0.3671
    103  OD1       -0.2020   25.5360   11.9670 O.co2  82  ASP82      -0.2456
    104  OD2       -0.9840   23.9380   13.2390 O.co2  82  ASP82      -0.2456
    105  N          4.3200   24.0840   11.6850 N.am   83  TYR83      -0.1960
    106  CA         5.7100   23.7390   11.8820 C.3    83  TYR83       0.1771
    107  C          6.0360   23.8170   13.3700 C.2    83  TYR83       0.2619
    108  O          5.6520   24.7760   14.0470 O.2    83  TYR83      -0.2715
    109  CB         6.5880   24.7310   11.1280 C.3    83  TYR83       0.0574
    110  CG         8.0580   24.6140   11.4710 C.ar   83  TYR83      -0.0198
    111  CD1        8.7960   23.5000   11.0850 C.ar   83  TYR83      -0.0009
    112  CD2        8.6980   25.6040   12.2200 C.ar   83  TYR83      -0.0009
    113  CE1       10.1400   23.3700   11.4420 C.ar   83  TYR83       0.0417
    114  CE2       10.0300   25.4930   12.5780 C.ar   83  TYR83       0.0417
    115  CZ        10.7490   24.3740   12.1890 C.ar   83  TYR83       0.1957
    116  OH        12.0730   24.2550   12.5560 O.3    83  TYR83      -0.2866
    117  N          6.7650   22.8230   13.8690 N.am   84  HIS84      -0.1973
    118  CA         7.1560   22.7830   15.2730 C.3    84  HIS84       0.1656
    119  C          8.6690   22.6310   15.4010 C.2    84  HIS84       0.2291
    120  O          9.2190   21.5510   15.2140 O.2    84  HIS84      -0.2864
    121  CB         6.4220   21.6410   15.9940 C.3    84  HIS84       0.0771
    122  CG         4.9390   21.8480   16.0740 C.ar   84  HIS84       0.0820
    123  ND1        4.3710   22.8740   16.8010 N.ar   84  HIS84      -0.2267
    124  CD2        3.9150   21.2180   15.4520 C.ar   84  HIS84       0.1154
    125  CE1        3.0620   22.8690   16.6170 C.ar   84  HIS84       0.1986
    126  NE2        2.7590   21.8750   15.8030 N.ar   84  HIS84      -0.2212
    127  N         10.4900   19.7520   17.1270 N.3    87  GLY87      -0.1210
    128  CA        10.5120   18.4460   16.4890 C.3    87  GLY87       0.1956
    129  C          9.7490   17.3930   17.2930 C.2    87  GLY87       0.2612
    130  O          8.8510   17.7270   18.0790 O.2    87  GLY87      -0.2717
    131  N         10.1140   16.1210   17.1270 N.am   88  SER88      -0.1952
    132  CA         9.4260   15.0300   17.8290 C.3    88  SER88       0.1924
    133  C          9.6420   14.9830   19.3420 C.2    88  SER88       0.2314
    134  O         10.6340   15.4840   19.8730 O.2    88  SER88      -0.2863
    135  CB         9.8400   13.6740   17.2580 C.3    88  SER88       0.2116
    136  OG        11.1000   13.2800   17.7790 O.3    88  SER88      -0.2180
    137  N          8.0780    9.3080   18.2200 N.3   138  LYS138     -0.1231
    138  CA         8.4960    9.9660   16.9830 C.3   138  LYS138      0.1693
    139  C          7.3240   10.5560   16.2070 C.2   138  LYS138      0.2592
    140  O          7.5200   11.3830   15.3110 O.2   138  LYS138     -0.2718
    141  CB         9.2730    8.9930   16.0990 C.3   138  LYS138      0.0285
    142  CG        10.6300    8.6060   16.6510 C.3   138  LYS138      0.0035
    143  CD        11.2860    7.5720   15.7450 C.3   138  LYS138      0.0206
    144  CE        12.7080    7.2530   16.1830 C.3   138  LYS138      0.1093
    145  NZ        12.7650    6.5480   17.4950 N.3   138  LYS138     -0.1314
    146  N          6.1120   10.1350   16.5680 N.am  139  ASN139     -0.1974
    147  CA         4.8880   10.6230   15.9290 C.3   139  ASN139      0.1688
    148  C          4.1630   11.6580   16.7610 C.2   139  ASN139      0.2292
    149  O          3.0090   11.9800   16.4820 O.2   139  ASN139     -0.2864
    150  CB         3.9250    9.4820   15.6400 C.3   139  ASN139      0.1181
    151  CG         4.3530    8.6610   14.4670 C.2   139  ASN139      0.2629
    152  OD1        5.0180    9.1630   13.5560 O.2   139  ASN139     -0.2716
    153  ND2        3.9620    7.3950   14.4590 N.am  139  ASN139     -0.0877
    154  N          4.7320   15.5630   18.3990 N.3   141  LEU141     -0.1245
    155  CA         5.5670   16.7520   18.2990 C.3   141  LEU141      0.1561
    156  C          5.3150   17.6580   19.4900 C.2   141  LEU141      0.2260
    157  O          4.1770   17.7970   19.9280 O.2   141  LEU141     -0.2867
    158  CB         5.2480   17.4980   17.0020 C.3   141  LEU141      0.0270
    159  CG         5.3890   16.6400   15.7450 C.3   141  LEU141      0.0019
    160  CD1        4.1880   16.8350   14.8400 C.3   141  LEU141      0.0001
    161  CD2        6.6770   16.9980   15.0450 C.3   141  LEU141      0.0001
    162  N          0.7520   13.3870   15.7100 N.3   151  ALA151     -0.1231
    163  CA         0.9690   13.4500   14.2630 C.3   151  ALA151      0.1694
    164  C          0.9140   12.0620   13.6170 C.2   151  ALA151      0.2592
    165  O          0.6400   11.0630   14.2810 O.2   151  ALA151     -0.2718
    166  CB         2.3150   14.1270   13.9520 C.3   151  ALA151      0.0304
    167  N          1.1730   12.0190   12.3160 N.am  152  ASP152     -0.1974
    168  CA         1.1500   10.7870   11.5260 C.3   152  ASP152      0.1709
    169  C         -0.1530    9.9970   11.6980 C.2   152  ASP152      0.2293
    170  O         -0.2080    9.0030   12.4260 O.2   152  ASP152     -0.2864
    171  CB         2.3330    9.8910   11.8890 C.3   152  ASP152      0.1436
    172  CG         2.6150    8.8550   10.8190 C.2   152  ASP152      0.3671
    173  OD1        1.6630    8.4580   10.1100 O.co2 152  ASP152     -0.2456
    174  OD2        3.7790    8.4330   10.6820 O.co2 152  ASP152     -0.2456
@<TRIPOS>BOND
     1    83    84    1
     2    37    36    2
     3    36    35    1
     4    84    87    1
     5    84    85    1
     6    89    88    1
     7    87    88    1
     8    85    86    2
     9    88    90    1
    10    35    34    1
    11    35    38    1
    12    43    44    1
    13    38    39    1
    14    39    40    1
    15    82    81   ar
    16    82    80   ar
    17    22    23    1
    18    45    44    1
    19    45    46    2
    20    25    24    2
    21    24    23    1
    22    44    47    1
    23    47    48    1
    24    81    79   ar
    25    80    78   ar
    26    23    26    1
    27    40    41    1
    28    50    49   ar
    29    41    42    1
    30    32    31    2
    31    31    30    1
    32    16    15    2
    33    48    49    1
    34    79    77   ar
    35    49    51   ar
    36    78    77   ar
    37    91    92    1
    38    26    28    1
    39    26    27    1
    40    15    14    1
    41    21    20    1
    42    77    76    1
    43     1     2    1
    44    30    29    1
    45    30    33    1
    46    52    53    1
    47    56    53    1
    48    56    57    1
    49    54    53    1
    50    54    55    2
    51    12    11    2
    52     9    10    1
    53     9     3   am
    54    11    10    1
    55    11    13   am
    56    13    14    1
    57    92    93    1
    58    92    95    1
    59    14    17    1
    60    59    57   ar
    61    59    61   ar
    62    74    75    2
    63    74    73    1
    64    94    93    2
    65    20    19    1
    66     6     8    1
    67     6     5    1
    68    18    17    1
    69    18    19    1
    70    76    73    1
    71     2     3    1
    72     2     5    1
    73    57    58   ar
    74    93    97   am
    75    95    96    1
    76     3     4    2
    77    61    62   ar
    78    73    72    1
    79     5     7    1
    80   173   172   ar
    81    58    60   ar
    82    97    98    1
    83    62    60   ar
    84    62    63    1
    85   174   172   ar
    86   172   171    1
    87   111   113   ar
    88   111   110   ar
    89   109   110    1
    90   109   106    1
    91    98    99    1
    92    98   101    1
    93   113   115   ar
    94   110   112   ar
    95   100    99    2
    96    99   105   am
    97   168   169    1
    98   168   171    1
    99   168   167    1
   100   105   106    1
   101   169   170    2
   102    71    69    1
   103   106   107    1
   104   103   102   ar
   105   115   116    1
   106   115   114   ar
   107   112   114   ar
   108   167   164   am
   109    69    70    1
   110    69    68    1
   111   102   101    1
   112   102   104   ar
   113    67    66    2
   114   107   117   am
   115   107   108    2
   116   152   151    2
   117    68    65    1
   118   164   163    1
   119   164   165    2
   120    66    65    1
   121   117   118    1
   122   166   163    1
   123   163   162    1
   124   153   151   am
   125   151   150    1
   126    65    64    1
   127   160   159    1
   128   161   159    1
   129   120   119    2
   130   118   119    1
   131   118   121    1
   132   140   139    2
   133   124   126   ar
   134   124   122   ar
   135   150   147    1
   136   159   158    1
   137   143   144    1
   138   143   142    1
   139   126   125   ar
   140   147   146    1
   141   147   148    1
   142   121   122    1
   143   122   123   ar
   144   141   142    1
   145   141   138    1
   146   144   145    1
   147   139   146   am
   148   139   138    1
   149   149   148    2
   150   128   127    1
   151   128   129    1
   152   125   123   ar
   153   138   137    1
   154   158   155    1
   155   131   129   am
   156   131   132    1
   157   135   136    1
   158   135   132    1
   159   129   130    2
   160   132   133    1
   161   155   154    1
   162   155   156    1
   163   133   134    2
   164   156   157    2
