@<TRIPOS>MOLECULE
tmp/1rwcA00.pdb
 158 148 0 0 0
SMALL
GASTEIGER

@<TRIPOS>ATOM
      1  N          5.9450   42.9890   85.7860 N.3   121  ASN121     -0.1240
      2  CA         5.0350   43.3980   84.7040 C.3   121  ASN121      0.1653
      3  C          3.8120   44.1120   85.2570 C.2   121  ASN121      0.2266
      4  O          3.0340   43.5070   86.0130 O.2   121  ASN121     -0.2867
      5  CB         4.5970   42.1300   83.9510 C.3   121  ASN121      0.1155
      6  CG         3.8920   42.4250   82.6180 C.2   121  ASN121      0.2627
      7  OD1        3.4930   43.5810   82.3200 O.2   121  ASN121     -0.2716
      8  ND2        3.7550   41.3790   81.7850 N.am  121  ASN121     -0.0877
      9  N          1.1900   44.7360   83.9650 N.3   123  TRP123     -0.1227
     10  CA        -0.0310   44.1100   83.4460 C.3   123  TRP123      0.1737
     11  C         -0.5610   43.1330   84.4940 C.2   123  TRP123      0.2596
     12  O         -1.7740   43.0610   84.7030 O.2   123  TRP123     -0.2718
     13  CB         0.2340   43.4350   82.0990 C.3   123  TRP123      0.0564
     14  CG        -1.0150   42.8520   81.4430 C.ar  123  TRP123      0.0003
     15  CD1       -1.7980   43.4550   80.4870 C.ar  123  TRP123      0.0946
     16  CD2       -1.6300   41.5770   81.7180 C.ar  123  TRP123      0.0152
     17  NE1       -2.8300   42.6210   80.1480 N.ar  123  TRP123     -0.2442
     18  CE2       -2.7520   41.4670   80.8830 C.ar  123  TRP123      0.0810
     19  CE3       -1.3350   40.5140   82.5820 C.ar  123  TRP123      0.0012
     20  CZ2       -3.5860   40.3540   80.8810 C.ar  123  TRP123      0.0191
     21  CZ3       -2.1600   39.3630   82.5460 C.ar  123  TRP123      0.0001
     22  CH2       -3.2770   39.3180   81.7380 C.ar  123  TRP123      0.0015
     23  N          0.3510   42.4150   85.1720 N.am  124  SER124     -0.1952
     24  CA        -0.0500   41.4870   86.2490 C.3   124  SER124      0.1924
     25  C         -0.8020   42.1110   87.4210 C.2   124  SER124      0.2314
     26  O         -1.7750   41.5250   87.9450 O.2   124  SER124     -0.2863
     27  CB         1.2090   40.7960   86.8100 C.3   124  SER124      0.2116
     28  OG         1.9520   40.1230   85.7720 O.3   124  SER124     -0.2180
     29  N         -9.0300   41.4050   87.2600 N.3   131  ARG131     -0.1245
     30  CA       -10.1540   40.7260   86.5880 C.3   131  ARG131      0.1563
     31  C        -10.4970   39.4370   87.3340 C.2   131  ARG131      0.2260
     32  O        -11.6570   39.1460   87.5690 O.2   131  ARG131     -0.2867
     33  CB        -9.8110   40.4240   85.1230 C.3   131  ARG131      0.0307
     34  CG        -9.7120   41.7540   84.2430 C.3   131  ARG131      0.0489
     35  CD        -9.3600   41.4980   82.8070 C.3   131  ARG131      0.2205
     36  NE        -8.2280   40.6010   82.7200 N.pl3 131  ARG131     -0.0865
     37  CZ        -7.9280   39.8790   81.6330 C.cat 131  ARG131      0.5346
     38  NH1       -8.6560   39.9700   80.5630 N.pl3 131  ARG131      0.1354
     39  NH2       -6.8930   39.0480   81.6320 N.pl3 131  ARG131      0.1354
     40  N         -9.6810   46.1040   79.4650 N.3   183  ASP183     -0.1239
     41  CA        -9.3860   45.1230   80.5380 C.3   183  ASP183      0.1674
     42  C         -9.4010   45.8590   81.8770 C.2   183  ASP183      0.2266
     43  O         -9.8820   45.3410   82.9080 O.2   183  ASP183     -0.2867
     44  CB        -7.9970   44.4840   80.3610 C.3   183  ASP183      0.1410
     45  CG        -8.0010   43.2480   79.4270 C.2   183  ASP183      0.3668
     46  OD1       -9.0360   42.5600   79.3060 O.co2 183  ASP183     -0.2456
     47  OD2       -6.9890   42.9350   78.7630 O.co2 183  ASP183     -0.2456
     48  N         -2.4540   44.5200   64.8410 N.3   235  TYR235     -0.1241
     49  CA        -2.7550   43.7060   65.9930 C.3   235  TYR235      0.1605
     50  C         -4.2150   43.3400   66.1410 C.2   235  TYR235      0.2264
     51  O         -4.6230   42.9260   67.2130 O.2   235  TYR235     -0.2867
     52  CB        -2.2620   44.4170   67.2400 C.3   235  TYR235      0.0534
     53  CG        -1.0970   43.7140   67.9280 C.ar  235  TYR235     -0.0201
     54  CD1       -0.0100   44.4360   68.5060 C.ar  235  TYR235     -0.0009
     55  CD2       -1.0860   42.3250   68.0270 C.ar  235  TYR235     -0.0009
     56  CE1        1.0240   43.7510   69.1690 C.ar  235  TYR235      0.0417
     57  CE2       -0.0730   41.6520   68.6340 C.ar  235  TYR235      0.0417
     58  CZ         0.9670   42.3410   69.2350 C.ar  235  TYR235      0.1957
     59  OH         1.9230   41.5690   69.8720 O.3   235  TYR235     -0.2866
     60  N         -4.9900   39.7560   67.9820 N.3   238  SER238     -0.1202
     61  CA        -4.8150   39.3690   69.3780 C.3   238  SER238      0.2020
     62  C         -5.2670   40.4820   70.3080 C.2   238  SER238      0.2618
     63  O         -6.2930   40.3190   71.0280 O.2   238  SER238     -0.2717
     64  CB        -3.3890   38.8170   69.7170 C.3   238  SER238      0.2103
     65  OG        -2.4180   39.8240   69.6270 O.3   238  SER238     -0.2182
     66  N         -4.5770   41.6290   70.3070 N.am  239  TYR239     -0.1975
     67  CA        -5.0980   42.7340   71.1240 C.3   239  TYR239      0.1639
     68  C         -6.5060   43.1360   70.6310 C.2   239  TYR239      0.2290
     69  O         -7.3590   43.4710   71.4510 O.2   239  TYR239     -0.2864
     70  CB        -4.1690   43.9400   71.1330 C.3   239  TYR239      0.0560
     71  CG        -2.9550   43.7260   72.0050 C.ar  239  TYR239     -0.0198
     72  CD1       -1.7170   43.4060   71.4380 C.ar  239  TYR239     -0.0009
     73  CD2       -3.0430   43.8230   73.4000 C.ar  239  TYR239     -0.0009
     74  CE1       -0.5880   43.1880   72.2570 C.ar  239  TYR239      0.0417
     75  CE2       -1.9130   43.6010   74.2300 C.ar  239  TYR239      0.0417
     76  CZ        -0.6910   43.2900   73.6280 C.ar  239  TYR239      0.1957
     77  OH         0.4470   43.0710   74.3830 O.3   239  TYR239     -0.2866
     78  N         -8.8160   41.2290   69.5140 N.3   241  VAL241     -0.1231
     79  CA        -9.7300   40.2370   70.0800 C.3   241  VAL241      0.1692
     80  C         -9.9610   40.3880   71.5770 C.2   241  VAL241      0.2591
     81  O        -11.0960   40.2300   72.0720 O.2   241  VAL241     -0.2718
     82  CB        -9.2100   38.8290   69.7080 C.3   241  VAL241      0.0266
     83  CG1       -9.9550   37.6950   70.4760 C.3   241  VAL241      0.0020
     84  CG2       -9.3080   38.6530   68.1870 C.3   241  VAL241      0.0020
     85  N         -8.8900   40.7170   72.3280 N.am  242  VAL242     -0.1980
     86  CA        -9.0550   41.0480   73.7240 C.3   242  VAL242      0.1595
     87  C        -10.0820   42.2110   73.9120 C.2   242  VAL242      0.2287
     88  O        -10.9840   42.1580   74.7720 O.2   242  VAL242     -0.2864
     89  CB        -7.6940   41.4190   74.3570 C.3   242  VAL242      0.0276
     90  CG1       -7.8990   42.0220   75.7460 C.3   242  VAL242      0.0022
     91  CG2       -6.8020   40.1520   74.4440 C.3   242  VAL242      0.0022
     92  N          3.2690   39.1810   68.4480 N.3   293  ARG293     -0.1231
     93  CA         4.1420   38.1770   69.1270 C.3   293  ARG293      0.1694
     94  C          3.4390   36.8310   69.4870 C.2   293  ARG293      0.2592
     95  O          4.1020   35.8500   69.8300 O.2   293  ARG293     -0.2718
     96  CB         4.8880   38.7850   70.3370 C.3   293  ARG293      0.0321
     97  CG         4.0320   39.0800   71.5340 C.3   293  ARG293      0.0489
     98  CD         4.7450   39.8910   72.6140 C.3   293  ARG293      0.2205
     99  NE         4.1150   39.7050   73.9300 N.pl3 293  ARG293     -0.0865
    100  CZ         3.0710   40.4210   74.3400 C.cat 293  ARG293      0.5346
    101  NH1        2.5680   41.3630   73.5330 N.pl3 293  ARG293      0.1354
    102  NH2        2.5230   40.1870   75.5280 N.pl3 293  ARG293      0.1354
    103  N          2.1140   36.7720   69.3820 N.am  294  SER294     -0.1952
    104  CA         1.3940   35.5810   69.8650 C.3   294  SER294      0.1924
    105  C          1.6010   34.3590   68.9720 C.2   294  SER294      0.2314
    106  O          1.2900   33.2040   69.3820 O.2   294  SER294     -0.2863
    107  CB        -0.1000   35.8650   70.0390 C.3   294  SER294      0.2116
    108  OG        -0.7450   36.0320   68.7890 O.3   294  SER294     -0.2180
    109  N          3.2900   31.4560   70.5860 N.3   297  ARG297     -0.1245
    110  CA         2.5910   30.7700   71.6670 C.3   297  ARG297      0.1563
    111  C          1.9610   29.4490   71.2520 C.2   297  ARG297      0.2260
    112  O          0.9810   29.4340   70.4830 O.2   297  ARG297     -0.2867
    113  CB         1.5020   31.6490   72.2470 C.3   297  ARG297      0.0307
    114  CG         2.0400   32.8800   72.9530 C.3   297  ARG297      0.0489
    115  CD         0.9640   33.8580   73.2450 C.3   297  ARG297      0.2205
    116  NE         1.5070   35.1320   73.7330 N.pl3 297  ARG297     -0.0865
    117  CZ         0.7990   36.2400   73.8830 C.cat 297  ARG297      0.5346
    118  NH1       -0.4870   36.2450   73.5380 N.pl3 297  ARG297      0.1354
    119  NH2        1.3880   37.3470   74.3860 N.pl3 297  ARG297      0.1354
    120  N         -1.8500   29.6520   72.3330 N.3   300  ASN300     -0.1240
    121  CA        -2.6490   30.8480   72.1030 C.3   300  ASN300      0.1653
    122  C         -2.4640   31.0830   70.5970 C.2   300  ASN300      0.2266
    123  O         -1.7480   31.9920   70.1750 O.2   300  ASN300     -0.2867
    124  CB        -2.1740   32.0360   73.0010 C.3   300  ASN300      0.1155
    125  CG        -3.0480   33.2780   72.8820 C.2   300  ASN300      0.2627
    126  OD1       -2.5170   34.3960   72.7910 O.2   300  ASN300     -0.2716
    127  ND2       -4.3750   33.1070   72.8430 N.am  300  ASN300     -0.0877
    128  N         -7.5450   32.3110   69.1310 N.3   305  LEU305     -0.1245
    129  CA        -7.9640   33.7210   68.9600 C.3   305  LEU305      0.1561
    130  C         -9.1800   33.8850   68.0890 C.2   305  LEU305      0.2260
    131  O        -10.1020   34.6710   68.4210 O.2   305  LEU305     -0.2867
    132  CB        -6.7870   34.5500   68.4310 C.3   305  LEU305      0.0270
    133  CG        -5.6640   34.5740   69.4610 C.3   305  LEU305      0.0019
    134  CD1       -4.4180   35.0720   68.7530 C.3   305  LEU305      0.0001
    135  CD2       -6.0430   35.5270   70.6520 C.3   305  LEU305      0.0001
    136  N        -12.2010   32.7690   70.1430 N.3   308  SER308     -0.1217
    137  CA       -12.5600   33.8460   71.0520 C.3   308  SER308      0.1889
    138  C        -13.3200   34.9320   70.3140 C.2   308  SER308      0.2288
    139  O        -14.3400   35.3730   70.8480 O.2   308  SER308     -0.2866
    140  CB       -11.3140   34.4230   71.6980 C.3   308  SER308      0.2089
    141  OG       -10.8930   33.5040   72.6840 O.3   308  SER308     -0.2183
    142  N          8.6590   40.1520   76.6170 N.3   407  ASN407     -0.1240
    143  CA         8.4230   39.1470   77.6580 C.3   407  ASN407      0.1653
    144  C          8.8840   37.7660   77.2850 C.2   407  ASN407      0.2266
    145  O          8.2630   36.7890   77.6860 O.2   407  ASN407     -0.2867
    146  CB         6.9300   39.1380   78.0620 C.3   407  ASN407      0.1155
    147  CG         6.4450   40.5140   78.5200 C.2   407  ASN407      0.2627
    148  OD1        7.2540   41.3890   78.8600 O.2   407  ASN407     -0.2716
    149  ND2        5.1320   40.7360   78.4960 N.am  407  ASN407     -0.0877
    150  N          8.9560   36.4600   74.2140 N.3   409  GLU409     -0.1245
    151  CA         8.1080   35.8910   73.1690 C.3   409  GLU409      0.1567
    152  C          8.4670   36.4460   71.7840 C.2   409  GLU409      0.2260
    153  O          8.5850   37.6400   71.6540 O.2   409  GLU409     -0.2867
    154  CB         6.6300   36.2540   73.4550 C.3   409  GLU409      0.0388
    155  CG         6.1530   35.8030   74.8090 C.3   409  GLU409      0.1160
    156  CD         4.6640   36.0250   74.9980 C.2   409  GLU409      0.3649
    157  OE1        3.9580   34.9770   75.0460 O.co2 409  GLU409     -0.2457
    158  OE2        4.2470   37.2230   75.0840 O.co2 409  GLU409     -0.2457
@<TRIPOS>BOND
     1    48    49    1
     2    49    50    1
     3    49    52    1
     4    50    51    2
     5    52    53    1
     6    53    55   ar
     7    53    54   ar
     8    60    61    1
     9    55    57   ar
    10   130   131    2
    11   130   129    1
    12    84    82    1
    13   132   129    1
    14   132   133    1
    15    92    93    1
    16    54    56   ar
    17    57    58   ar
    18   134   133    1
    19   108   107    1
    20   129   128    1
    21   105   106    2
    22   105   104    1
    23    93    94    1
    24    93    96    1
    25    56    58   ar
    26    58    59    1
    27    61    64    1
    28    61    62    1
    29   103    94   am
    30   103   104    1
    31   133   135    1
    32    94    95    2
    33    78    79    1
    34    65    64    1
    35    82    79    1
    36    82    83    1
    37   104   107    1
    38    79    80    1
    39   136   137    1
    40   123   122    2
    41    66    62   am
    42    66    67    1
    43    62    63    2
    44   138   139    2
    45   138   137    1
    46    96    97    1
    47   112   111    2
    48   109   110    1
    49   122   121    1
    50    68    67    1
    51    68    69    2
    52   137   140    1
    53    67    70    1
    54    70    71    1
    55   111   110    1
    56    72    71   ar
    57    72    74   ar
    58    97    98    1
    59    80    81    2
    60    80    85   am
    61   153   152    2
    62   110   113    1
    63   140   141    1
    64   152   151    1
    65    71    73   ar
    66   121   120    1
    67   121   124    1
    68   113   114    1
    69    74    76   ar
    70    85    86    1
    71    98    99    1
    72   126   125    2
    73   127   125   am
    74   125   124    1
    75   114   115    1
    76   151   154    1
    77   151   150    1
    78   115   116    1
    79    73    75   ar
    80   154   155    1
    81   101   100    1
    82   118   117    1
    83    76    75   ar
    84    76    77    1
    85    86    87    1
    86    86    89    1
    87   116   117    2
    88   117   119    1
    89    87    88    2
    90    99   100    2
    91   100   102    1
    92    89    91    1
    93    89    90    1
    94   155   156    1
    95   156   157   ar
    96   156   158   ar
    97   142   143    1
    98   144   143    1
    99   144   145    2
   100   143   146    1
   101   146   147    1
   102   149   147   am
   103   147   148    2
   104    47    45   ar
   105    46    45   ar
   106    45    44    1
   107    40    41    1
   108    17    15   ar
   109    17    18   ar
   110    44    41    1
   111    15    14   ar
   112    41    42    1
   113    38    37    1
   114    20    18   ar
   115    20    22   ar
   116    18    16   ar
   117    14    16   ar
   118    14    13    1
   119    39    37    1
   120    37    36    2
   121    16    19   ar
   122    22    21   ar
   123     8     6   am
   124    42    43    2
   125    13    10    1
   126     7     6    2
   127    21    19   ar
   128     6     5    1
   129    36    35    1
   130    35    34    1
   131    10     9    1
   132    10    11    1
   133     5     2    1
   134    34    33    1
   135    11    12    2
   136    11    23   am
   137     2     3    1
   138     2     1    1
   139    33    30    1
   140    23    24    1
   141     3     4    2
   142    28    27    1
   143    24    27    1
   144    24    25    1
   145    30    29    1
   146    30    31    1
   147    31    32    2
   148    25    26    2
