@<TRIPOS>MOLECULE
tmp/1rwhA00.pdb
 155 153 0 0 0
SMALL
GASTEIGER

@<TRIPOS>ATOM
      1  N          6.1280   43.2490   84.8520 N.3   121  ASN121     -0.1225
      2  CA         5.2460   43.6580   83.7810 C.3   121  ASN121      0.1785
      3  C          3.9730   44.3330   84.3060 C.2   121  ASN121      0.2597
      4  O          3.1980   43.7040   85.0010 O.2   121  ASN121     -0.2718
      5  CB         4.8730   42.4100   83.0020 C.3   121  ASN121      0.1169
      6  CG         4.0850   42.6600   81.7320 C.2   121  ASN121      0.2627
      7  OD1        3.7350   43.7900   81.3890 O.2   121  ASN121     -0.2716
      8  ND2        3.8080   41.5380   80.9880 N.am  121  ASN121     -0.0877
      9  N          3.7680   45.5900   83.9290 N.am  122  TRP122     -0.1962
     10  CA         2.6380   46.3680   84.3460 C.3   122  TRP122      0.1771
     11  C          1.3210   45.6280   84.0450 C.2   122  TRP122      0.2619
     12  O          0.3510   45.7250   84.8280 O.2   122  TRP122     -0.2715
     13  CB         2.6060   47.7480   83.6420 C.3   122  TRP122      0.0590
     14  CG         2.2330   47.6880   82.2190 C.ar  122  TRP122      0.0006
     15  CD1        3.0460   47.4370   81.1320 C.ar  122  TRP122      0.0946
     16  CD2        0.8990   47.7800   81.7030 C.ar  122  TRP122      0.0152
     17  NE1        2.2550   47.3860   80.0080 N.ar  122  TRP122     -0.2442
     18  CE2        0.9530   47.5970   80.3160 C.ar  122  TRP122      0.0810
     19  CE3       -0.3500   48.0400   82.2810 C.ar  122  TRP122      0.0012
     20  CZ2       -0.1910   47.6340   79.5130 C.ar  122  TRP122      0.0191
     21  CZ3       -1.4820   48.0490   81.4930 C.ar  122  TRP122      0.0001
     22  CH2       -1.3940   47.8420   80.1070 C.ar  122  TRP122      0.0015
     23  N          1.2870   44.8830   82.9430 N.am  123  TRP123     -0.1974
     24  CA         0.0390   44.2750   82.5130 C.3   123  TRP123      0.1640
     25  C         -0.4110   43.2840   83.5750 C.2   123  TRP123      0.2290
     26  O         -1.6280   43.0890   83.7760 O.2   123  TRP123     -0.2864
     27  CB         0.2850   43.5920   81.1850 C.3   123  TRP123      0.0576
     28  CG        -0.8860   42.9920   80.4920 C.ar  123  TRP123      0.0006
     29  CD1       -1.6470   43.5920   79.4990 C.ar  123  TRP123      0.0946
     30  CD2       -1.4880   41.7090   80.7340 C.ar  123  TRP123      0.0152
     31  NE1       -2.6540   42.7690   79.1040 N.ar  123  TRP123     -0.2442
     32  CE2       -2.5910   41.5990   79.8350 C.ar  123  TRP123      0.0810
     33  CE3       -1.1780   40.6330   81.5720 C.ar  123  TRP123      0.0012
     34  CZ2       -3.4080   40.5020   79.7840 C.ar  123  TRP123      0.0191
     35  CZ3       -2.0550   39.4740   81.5020 C.ar  123  TRP123      0.0001
     36  CH2       -3.1160   39.4340   80.5960 C.ar  123  TRP123      0.0015
     37  N         -2.7350   53.9110   82.3270 N.3   166  GLN166     -0.1231
     38  CA        -1.9670   52.7470   82.6110 C.3   166  GLN166      0.1698
     39  C         -0.5600   53.0990   83.0600 C.2   166  GLN166      0.2592
     40  O         -0.0760   54.2110   82.7630 O.2   166  GLN166     -0.2718
     41  CB        -1.8990   51.7340   81.4550 C.3   166  GLN166      0.0381
     42  CG        -1.1580   52.3480   80.2800 C.3   166  GLN166      0.0905
     43  CD        -1.1890   51.4440   79.0730 C.2   166  GLN166      0.2608
     44  OE1       -2.2550   51.0980   78.5820 O.2   166  GLN166     -0.2717
     45  NE2        0.0180   51.0380   78.5950 N.am  166  GLN166     -0.0878
     46  N          0.0890   52.1600   83.7260 N.am  167  PHE167     -0.1976
     47  CA         1.4510   52.1160   84.2100 C.3   167  PHE167      0.1639
     48  C          1.5060   52.5520   85.6990 C.2   167  PHE167      0.2290
     49  O          0.6280   53.3620   86.1250 O.2   167  PHE167     -0.2864
     50  CB         2.4440   53.0100   83.4160 C.3   167  PHE167      0.0560
     51  CG         2.6860   52.5890   82.0090 C.ar  167  PHE167     -0.0200
     52  CD1        3.0970   53.5660   81.0700 C.ar  167  PHE167     -0.0042
     53  CD2        2.5860   51.2460   81.5930 C.ar  167  PHE167     -0.0042
     54  CE1        3.3750   53.2280   79.7970 C.ar  167  PHE167     -0.0003
     55  CE2        2.8810   50.9390   80.2600 C.ar  167  PHE167     -0.0003
     56  CZ         3.2830   51.9330   79.3850 C.ar  167  PHE167     -0.0000
     57  N          6.6540   55.1930   86.5980 N.3   171  ARG171     -0.1245
     58  CA         6.9160   55.1560   85.1660 C.3   171  ARG171      0.1563
     59  C          6.3330   56.4120   84.5180 C.2   171  ARG171      0.2260
     60  O          6.7830   56.8410   83.4350 O.2   171  ARG171     -0.2867
     61  CB         6.2840   53.9060   84.5900 C.3   171  ARG171      0.0307
     62  CG         6.5290   53.7400   83.0940 C.3   171  ARG171      0.0489
     63  CD         6.2460   52.3570   82.5840 C.3   171  ARG171      0.2205
     64  NE         6.4800   52.2190   81.1460 N.pl3 171  ARG171     -0.0865
     65  CZ         6.4120   51.0400   80.4960 C.cat 171  ARG171      0.5346
     66  NH1        6.1570   49.9150   81.1550 N.pl3 171  ARG171      0.1354
     67  NH2        6.6120   50.9880   79.1810 N.pl3 171  ARG171      0.1354
     68  N          0.1860   56.8500   81.2510 N.3   174  ILE174     -0.1245
     69  CA        -0.2470   57.2740   79.9390 C.3   174  ILE174      0.1561
     70  C         -1.6690   56.8450   79.6880 C.2   174  ILE174      0.2260
     71  O         -2.1870   55.9470   80.3650 O.2   174  ILE174     -0.2867
     72  CB         0.6850   56.7690   78.8050 C.3   174  ILE174      0.0252
     73  CG1        0.5940   55.2680   78.6450 C.3   174  ILE174      0.0019
     74  CG2        2.1480   57.2160   79.0590 C.3   174  ILE174      0.0019
     75  CD1        1.3850   54.7880   77.3660 C.3   174  ILE174      0.0001
     76  N         -5.9060   47.5060   75.5330 N.3   180  ASN180     -0.1240
     77  CA        -5.5700   47.8000   76.9240 C.3   180  ASN180      0.1653
     78  C         -6.6670   48.6040   77.5870 C.2   180  ASN180      0.2266
     79  O         -7.0220   48.3260   78.7360 O.2   180  ASN180     -0.2867
     80  CB        -4.2260   48.5280   77.0200 C.3   180  ASN180      0.1155
     81  CG        -3.0750   47.6460   76.6050 C.2   180  ASN180      0.2627
     82  OD1       -3.0550   46.4490   76.9020 O.2   180  ASN180     -0.2716
     83  ND2       -2.0670   48.2380   75.9230 N.am  180  ASN180     -0.0877
     84  N         -2.5170   54.0360   67.6360 N.3   219  ASP219     -0.1239
     85  CA        -3.2450   52.8380   67.8100 C.3   219  ASP219      0.1674
     86  C         -4.7220   52.9920   67.6420 C.2   219  ASP219      0.2266
     87  O         -5.3460   53.9760   68.1790 O.2   219  ASP219     -0.2867
     88  CB        -2.9780   52.2800   69.1930 C.3   219  ASP219      0.1410
     89  CG        -1.5730   51.7610   69.3610 C.2   219  ASP219      0.3668
     90  OD1       -0.8740   51.6670   68.3650 O.co2 219  ASP219     -0.2456
     91  OD2       -1.1240   51.3930   70.4980 O.co2 219  ASP219     -0.2456
     92  N         -1.9150   48.1970   67.0930 N.3   229  GLN229     -0.1231
     93  CA        -1.6050   48.3280   68.5090 C.3   229  GLN229      0.1698
     94  C         -0.0900   48.3900   68.6070 C.2   229  GLN229      0.2592
     95  O          0.6060   47.8090   67.7800 O.2   229  GLN229     -0.2718
     96  CB        -2.1800   47.1460   69.3470 C.3   229  GLN229      0.0381
     97  CG        -2.1090   47.3130   70.8670 C.3   229  GLN229      0.0905
     98  CD        -3.3860   47.8430   71.5210 C.2   229  GLN229      0.2608
     99  OE1       -4.5180   47.4640   71.1730 O.2   229  GLN229     -0.2717
    100  NE2       -3.2110   48.8000   72.4400 N.am  229  GLN229     -0.0878
    101  N          0.4220   49.1370   69.5770 N.am  230  HIS230     -0.1976
    102  CA         1.8860   49.3010   69.7480 C.3   230  HIS230      0.1656
    103  C          2.4830   50.1150   68.5930 C.2   230  HIS230      0.2291
    104  O          3.6780   49.9030   68.2540 O.2   230  HIS230     -0.2864
    105  CB         2.6640   48.0200   69.9840 C.3   230  HIS230      0.0771
    106  CG         2.2270   47.2830   71.2080 C.ar  230  HIS230      0.0820
    107  ND1        2.6880   46.0140   71.4870 N.ar  230  HIS230     -0.2267
    108  CD2        1.4710   47.6500   72.2720 C.ar  230  HIS230      0.1154
    109  CE1        2.2130   45.6220   72.6640 C.ar  230  HIS230      0.1986
    110  NE2        1.4750   46.6140   73.1650 N.ar  230  HIS230     -0.2212
    111  N         -4.3800   41.6780   69.3960 N.3   239  TYR239     -0.1241
    112  CA        -4.9280   42.8000   70.1730 C.3   239  TYR239      0.1605
    113  C         -6.2970   43.2220   69.6520 C.2   239  TYR239      0.2264
    114  O         -7.1820   43.5490   70.4670 O.2   239  TYR239     -0.2867
    115  CB        -3.9690   43.9740   70.1870 C.3   239  TYR239      0.0534
    116  CG        -2.7480   43.7470   71.0180 C.ar  239  TYR239     -0.0201
    117  CD1       -1.5300   43.4320   70.4730 C.ar  239  TYR239     -0.0009
    118  CD2       -2.8440   43.8660   72.3610 C.ar  239  TYR239     -0.0009
    119  CE1       -0.3880   43.2050   71.2510 C.ar  239  TYR239      0.0417
    120  CE2       -1.7280   43.6510   73.1800 C.ar  239  TYR239      0.0417
    121  CZ        -0.4970   43.2860   72.6000 C.ar  239  TYR239      0.1957
    122  OH         0.6140   43.0770   73.3850 O.3   239  TYR239     -0.2866
    123  N          3.4310   39.1500   67.5110 N.3   293  ARG293     -0.1245
    124  CA         4.3290   38.1820   68.1770 C.3   293  ARG293      0.1563
    125  C          3.6200   36.9240   68.5750 C.2   293  ARG293      0.2260
    126  O          4.3070   35.9550   68.9880 O.2   293  ARG293     -0.2867
    127  CB         5.0230   38.8610   69.3500 C.3   293  ARG293      0.0307
    128  CG         4.2060   39.1050   70.6160 C.3   293  ARG293      0.0489
    129  CD         5.0060   39.8780   71.6280 C.3   293  ARG293      0.2205
    130  NE         4.4030   39.8400   72.9620 N.pl3 293  ARG293     -0.0865
    131  CZ         3.3410   40.5650   73.2950 C.cat 293  ARG293      0.5346
    132  NH1        2.8230   41.4710   72.4800 N.pl3 293  ARG293      0.1354
    133  NH2        2.6870   40.3290   74.4670 N.pl3 293  ARG293      0.1354
    134  N          8.8220   40.3420   75.6030 N.3   407  ASN407     -0.1240
    135  CA         8.5070   39.3570   76.6470 C.3   407  ASN407      0.1653
    136  C          9.0230   37.9540   76.3200 C.2   407  ASN407      0.2266
    137  O          8.4400   36.9610   76.7360 O.2   407  ASN407     -0.2867
    138  CB         7.0110   39.3240   76.9360 C.3   407  ASN407      0.1155
    139  CG         6.5490   40.5910   77.6340 C.2   407  ASN407      0.2627
    140  OD1        7.3680   41.4190   78.0650 O.2   407  ASN407     -0.2716
    141  ND2        5.1900   40.8020   77.6080 N.am  407  ASN407     -0.0877
    142  N          9.3660   45.4350   70.6320 N.3   462  TRP462     -0.1241
    143  CA         8.2020   46.3090   70.6040 C.3   462  TRP462      0.1605
    144  C          8.0910   47.1280   69.3400 C.2   462  TRP462      0.2264
    145  O          7.4870   48.2070   69.3550 O.2   462  TRP462     -0.2867
    146  CB         8.0620   47.1770   71.8800 C.3   462  TRP462      0.0550
    147  CG         8.1860   46.3190   73.1270 C.ar  462  TRP462      0.0003
    148  CD1        9.1470   46.4050   74.1050 C.ar  462  TRP462      0.0946
    149  CD2        7.3110   45.2460   73.5030 C.ar  462  TRP462      0.0152
    150  NE1        8.9220   45.4290   75.0520 N.ar  462  TRP462     -0.2442
    151  CE2        7.7940   44.7070   74.7160 C.ar  462  TRP462      0.0810
    152  CE3        6.1130   44.6890   72.9540 C.ar  462  TRP462      0.0012
    153  CZ2        7.1380   43.6540   75.3930 C.ar  462  TRP462      0.0191
    154  CZ3        5.4860   43.6400   73.5990 C.ar  462  TRP462      0.0001
    155  CH2        6.0030   43.1550   74.8320 C.ar  462  TRP462      0.0015
@<TRIPOS>BOND
     1    92    93    1
     2   123   124    1
     3    84    85    1
     4    86    85    1
     5    86    87    2
     6    95    94    2
     7    85    88    1
     8   124   125    1
     9   124   127    1
    10   104   103    2
    11    90    89   ar
    12    93    94    1
    13    93    96    1
    14   125   126    2
    15   103   102    1
    16    94   101   am
    17    88    89    1
    18   144   145    2
    19   144   143    1
    20    96    97    1
    21   127   128    1
    22    89    91   ar
    23   111   112    1
    24   101   102    1
    25   113   112    1
    26   113   114    2
    27   102   105    1
    28   105   106    1
    29   112   115    1
    30   115   116    1
    31   117   116   ar
    32   117   119   ar
    33   143   142    1
    34   143   146    1
    35   128   129    1
    36    97    98    1
    37   116   118   ar
    38    99    98    2
    39   106   107   ar
    40   106   108   ar
    41   119   121   ar
    42   107   109   ar
    43    98   100   am
    44   129   130    1
    45   146   147    1
    46   108   110   ar
    47   118   120   ar
    48   132   131    1
    49   121   120   ar
    50   121   122    1
    51   109   110   ar
    52   152   149   ar
    53   152   154   ar
    54   130   131    2
    55   147   149   ar
    56   147   148   ar
    57   131   133    1
    58   149   151   ar
    59   154   155   ar
    60   148   150   ar
    61   151   150   ar
    62   151   153   ar
    63   155   153   ar
    64    76    77    1
    65   134   135    1
    66    83    81   am
    67   136   135    1
    68   136   137    2
    69    81    82    2
    70    81    80    1
    71   135   138    1
    72    77    80    1
    73    77    78    1
    74   138   139    1
    75    75    73    1
    76    78    79    2
    77   141   139   am
    78   139   140    2
    79    44    43    2
    80    45    43   am
    81    73    72    1
    82    72    74    1
    83    72    69    1
    84    43    42    1
    85    31    29   ar
    86    31    32   ar
    87    67    65    1
    88    56    54   ar
    89    56    55   ar
    90    29    28   ar
    91    20    22   ar
    92    20    18   ar
    93    70    69    1
    94    70    71    2
    95    34    32   ar
    96    34    36   ar
    97    54    52   ar
    98    32    30   ar
    99    69    68    1
   100    17    18   ar
   101    17    15   ar
   102    22    21   ar
   103    55    53   ar
   104    42    41    1
   105    18    16   ar
   106    28    30   ar
   107    28    27    1
   108    65    64    2
   109    65    66    1
   110    36    35   ar
   111    30    33   ar
   112     8     6   am
   113    52    51   ar
   114    15    14   ar
   115    64    63    1
   116    27    24    1
   117     7     6    2
   118    41    38    1
   119    21    19   ar
   120    35    33   ar
   121    53    51   ar
   122    16    14   ar
   123    16    19   ar
   124     6     5    1
   125    51    50    1
   126    14    13    1
   127    37    38    1
   128    24    23    1
   129    24    25    1
   130    63    62    1
   131    38    39    1
   132    40    39    2
   133    23    11   am
   134     5     2    1
   135    39    46   am
   136    62    61    1
   137    50    47    1
   138    60    59    2
   139    25    26    2
   140    13    10    1
   141    46    47    1
   142     2     3    1
   143     2     1    1
   144     9     3   am
   145     9    10    1
   146    11    10    1
   147    11    12    2
   148    47    48    1
   149     3     4    2
   150    59    58    1
   151    61    58    1
   152    58    57    1
   153    48    49    2
