@<TRIPOS>MOLECULE
tmp/1rwhA01.pdb
 185 174 0 0 0
SMALL
GASTEIGER

@<TRIPOS>ATOM
      1  N          4.0850   36.9400   86.2210 N.3    67  ALA67      -0.1245
      2  CA         3.2590   36.1160   85.3600 C.3    67  ALA67       0.1562
      3  C          2.6230   34.9450   86.1250 C.2    67  ALA67       0.2260
      4  O          1.5020   34.5290   85.8580 O.2    67  ALA67      -0.2867
      5  CB         4.0110   35.6310   84.1470 C.3    67  ALA67       0.0290
      6  N          6.1280   43.2490   84.8520 N.3   121  ASN121     -0.1240
      7  CA         5.2460   43.6580   83.7810 C.3   121  ASN121      0.1653
      8  C          3.9730   44.3330   84.3060 C.2   121  ASN121      0.2266
      9  O          3.1980   43.7040   85.0010 O.2   121  ASN121     -0.2867
     10  CB         4.8730   42.4100   83.0020 C.3   121  ASN121      0.1155
     11  CG         4.0850   42.6600   81.7320 C.2   121  ASN121      0.2627
     12  OD1        3.7350   43.7900   81.3890 O.2   121  ASN121     -0.2716
     13  ND2        3.8080   41.5380   80.9880 N.am  121  ASN121     -0.0877
     14  N          1.2870   44.8830   82.9430 N.3   123  TRP123     -0.1227
     15  CA         0.0390   44.2750   82.5130 C.3   123  TRP123      0.1737
     16  C         -0.4110   43.2840   83.5750 C.2   123  TRP123      0.2596
     17  O         -1.6280   43.0890   83.7760 O.2   123  TRP123     -0.2718
     18  CB         0.2850   43.5920   81.1850 C.3   123  TRP123      0.0564
     19  CG        -0.8860   42.9920   80.4920 C.ar  123  TRP123      0.0003
     20  CD1       -1.6470   43.5920   79.4990 C.ar  123  TRP123      0.0946
     21  CD2       -1.4880   41.7090   80.7340 C.ar  123  TRP123      0.0152
     22  NE1       -2.6540   42.7690   79.1040 N.ar  123  TRP123     -0.2442
     23  CE2       -2.5910   41.5990   79.8350 C.ar  123  TRP123      0.0810
     24  CE3       -1.1780   40.6330   81.5720 C.ar  123  TRP123      0.0012
     25  CZ2       -3.4080   40.5020   79.7840 C.ar  123  TRP123      0.0191
     26  CZ3       -2.0550   39.4740   81.5020 C.ar  123  TRP123      0.0001
     27  CH2       -3.1160   39.4340   80.5960 C.ar  123  TRP123      0.0015
     28  N          0.5240   42.5710   84.2070 N.am  124  SER124     -0.1952
     29  CA         0.1480   41.6040   85.2160 C.3   124  SER124      0.1924
     30  C         -0.6850   42.2450   86.3570 C.2   124  SER124      0.2314
     31  O         -1.6330   41.6600   86.8510 O.2   124  SER124     -0.2863
     32  CB         1.4000   40.9490   85.8080 C.3   124  SER124      0.2116
     33  OG         2.0660   40.2170   84.7710 O.3   124  SER124     -0.2180
     34  N         -8.7820   41.4910   86.1740 N.3   131  ARG131     -0.1245
     35  CA        -9.9160   40.8270   85.5130 C.3   131  ARG131      0.1563
     36  C        -10.3180   39.5500   86.2400 C.2   131  ARG131      0.2260
     37  O        -11.4830   39.2310   86.4020 O.2   131  ARG131     -0.2867
     38  CB        -9.6590   40.5410   84.0350 C.3   131  ARG131      0.0307
     39  CG        -9.4940   41.7940   83.1990 C.3   131  ARG131      0.0489
     40  CD        -9.1980   41.5070   81.7360 C.3   131  ARG131      0.2205
     41  NE        -8.0340   40.6400   81.6690 N.pl3 131  ARG131     -0.0865
     42  CZ        -7.6710   39.8750   80.6360 C.cat 131  ARG131      0.5346
     43  NH1       -8.2990   40.0190   79.4610 N.pl3 131  ARG131      0.1354
     44  NH2       -6.7790   38.9380   80.8420 N.pl3 131  ARG131      0.1354
     45  N         -9.5230   46.1160   78.3240 N.3   183  ASP183     -0.1239
     46  CA        -9.2160   45.2160   79.4170 C.3   183  ASP183      0.1674
     47  C         -9.2150   45.9590   80.7870 C.2   183  ASP183      0.2266
     48  O         -9.7060   45.3820   81.7710 O.2   183  ASP183     -0.2867
     49  CB        -7.8550   44.5860   79.1980 C.3   183  ASP183      0.1410
     50  CG        -7.8390   43.2680   78.4280 C.2   183  ASP183      0.3668
     51  OD1       -8.9060   42.6090   78.3890 O.co2 183  ASP183     -0.2456
     52  OD2       -6.7600   42.9870   77.8690 O.co2 183  ASP183     -0.2456
     53  N         -2.2710   44.5670   63.8380 N.3   235  TYR235     -0.1241
     54  CA        -2.6410   43.8080   65.0380 C.3   235  TYR235      0.1605
     55  C         -4.0730   43.3870   65.1680 C.2   235  TYR235      0.2264
     56  O         -4.4590   42.9520   66.2580 O.2   235  TYR235     -0.2867
     57  CB        -2.0670   44.5090   66.2870 C.3   235  TYR235      0.0534
     58  CG        -0.9340   43.7490   66.9170 C.ar  235  TYR235     -0.0201
     59  CD1        0.1570   44.4190   67.4880 C.ar  235  TYR235     -0.0009
     60  CD2       -0.9520   42.3620   67.0520 C.ar  235  TYR235     -0.0009
     61  CE1        1.2030   43.7520   68.1380 C.ar  235  TYR235      0.0417
     62  CE2        0.1050   41.6770   67.6720 C.ar  235  TYR235      0.0417
     63  CZ         1.1500   42.3880   68.2450 C.ar  235  TYR235      0.1957
     64  OH         2.1300   41.6230   68.8550 O.3   235  TYR235     -0.2866
     65  N         -4.7810   39.7420   67.0260 N.3   238  SER238     -0.1202
     66  CA        -4.5270   39.3980   68.4250 C.3   238  SER238      0.2020
     67  C         -5.0440   40.5200   69.3320 C.2   238  SER238      0.2618
     68  O         -6.1260   40.4000   69.9050 O.2   238  SER238     -0.2717
     69  CB        -3.1270   38.9910   68.7280 C.3   238  SER238      0.2103
     70  OG        -2.2520   40.0360   68.5410 O.3   238  SER238     -0.2182
     71  N         -4.3800   41.6780   69.3960 N.am  239  TYR239     -0.1975
     72  CA        -4.9280   42.8000   70.1730 C.3   239  TYR239      0.1639
     73  C         -6.2970   43.2220   69.6520 C.2   239  TYR239      0.2290
     74  O         -7.1820   43.5490   70.4670 O.2   239  TYR239     -0.2864
     75  CB        -3.9690   43.9740   70.1870 C.3   239  TYR239      0.0560
     76  CG        -2.7480   43.7470   71.0180 C.ar  239  TYR239     -0.0198
     77  CD1       -1.5300   43.4320   70.4730 C.ar  239  TYR239     -0.0009
     78  CD2       -2.8440   43.8660   72.3610 C.ar  239  TYR239     -0.0009
     79  CE1       -0.3880   43.2050   71.2510 C.ar  239  TYR239      0.0417
     80  CE2       -1.7280   43.6510   73.1800 C.ar  239  TYR239      0.0417
     81  CZ        -0.4970   43.2860   72.6000 C.ar  239  TYR239      0.1957
     82  OH         0.6140   43.0770   73.3850 O.3   239  TYR239     -0.2866
     83  N         -8.5960   41.2790   68.4660 N.3   241  VAL241     -0.1231
     84  CA        -9.5050   40.2740   69.0050 C.3   241  VAL241      0.1692
     85  C         -9.7460   40.4750   70.5120 C.2   241  VAL241      0.2591
     86  O        -10.8530   40.2830   70.9760 O.2   241  VAL241     -0.2718
     87  CB        -9.0080   38.8620   68.6680 C.3   241  VAL241      0.0266
     88  CG1       -9.8260   37.7900   69.4220 C.3   241  VAL241      0.0020
     89  CG2       -9.1130   38.6470   67.1750 C.3   241  VAL241      0.0020
     90  N         -8.7020   40.8540   71.2650 N.am  242  VAL242     -0.1980
     91  CA        -8.9200   41.1730   72.6720 C.3   242  VAL242      0.1595
     92  C         -9.9360   42.2990   72.8210 C.2   242  VAL242      0.2287
     93  O        -10.8350   42.2460   73.6810 O.2   242  VAL242     -0.2864
     94  CB        -7.5630   41.5470   73.3400 C.3   242  VAL242      0.0276
     95  CG1       -7.7430   42.1570   74.7280 C.3   242  VAL242      0.0022
     96  CG2       -6.6420   40.3270   73.3670 C.3   242  VAL242      0.0022
     97  N          3.4310   39.1500   67.5110 N.3   293  ARG293     -0.1231
     98  CA         4.3290   38.1820   68.1770 C.3   293  ARG293      0.1694
     99  C          3.6200   36.9240   68.5750 C.2   293  ARG293      0.2592
    100  O          4.3070   35.9550   68.9880 O.2   293  ARG293     -0.2718
    101  CB         5.0230   38.8610   69.3500 C.3   293  ARG293      0.0321
    102  CG         4.2060   39.1050   70.6160 C.3   293  ARG293      0.0489
    103  CD         5.0060   39.8780   71.6280 C.3   293  ARG293      0.2205
    104  NE         4.4030   39.8400   72.9620 N.pl3 293  ARG293     -0.0865
    105  CZ         3.3410   40.5650   73.2950 C.cat 293  ARG293      0.5346
    106  NH1        2.8230   41.4710   72.4800 N.pl3 293  ARG293      0.1354
    107  NH2        2.6870   40.3290   74.4670 N.pl3 293  ARG293      0.1354
    108  N          2.3030   36.8670   68.5290 N.am  294  SER294     -0.1952
    109  CA         1.5660   35.6800   68.9350 C.3   294  SER294      0.1924
    110  C          1.8290   34.4810   68.0160 C.2   294  SER294      0.2314
    111  O          1.5190   33.3560   68.4250 O.2   294  SER294     -0.2863
    112  CB         0.0760   35.9330   69.0950 C.3   294  SER294      0.2116
    113  OG        -0.5690   36.1180   67.8430 O.3   294  SER294     -0.2180
    114  N          3.4180   31.4940   69.7550 N.3   297  ARG297     -0.1245
    115  CA         2.7470   30.8620   70.8650 C.3   297  ARG297      0.1563
    116  C          2.0890   29.5630   70.4360 C.2   297  ARG297      0.2260
    117  O          1.1350   29.5380   69.6500 O.2   297  ARG297     -0.2867
    118  CB         1.6810   31.8050   71.3930 C.3   297  ARG297      0.0307
    119  CG         2.2240   33.0400   71.9950 C.3   297  ARG297      0.0489
    120  CD         1.1690   34.0260   72.4430 C.3   297  ARG297      0.2205
    121  NE         1.6990   35.2820   72.8490 N.pl3 297  ARG297     -0.0865
    122  CZ         1.0000   36.3970   72.9640 C.cat 297  ARG297      0.5346
    123  NH1       -0.2750   36.4070   72.6180 N.pl3 297  ARG297      0.1354
    124  NH2        1.5790   37.4930   73.4110 N.pl3 297  ARG297      0.1354
    125  N         -1.6150   29.7810   71.5780 N.3   300  ASN300     -0.1240
    126  CA        -2.4050   30.9780   71.2720 C.3   300  ASN300      0.1653
    127  C         -2.2340   31.1970   69.7680 C.2   300  ASN300      0.2266
    128  O         -1.4940   32.0560   69.3060 O.2   300  ASN300     -0.2867
    129  CB        -1.9640   32.1880   72.0800 C.3   300  ASN300      0.1155
    130  CG        -2.8570   33.4110   71.9420 C.2   300  ASN300      0.2627
    131  OD1       -2.3300   34.5360   71.8180 O.2   300  ASN300     -0.2716
    132  ND2       -4.1780   33.2560   72.0020 N.am  300  ASN300     -0.0877
    133  N         -7.3340   32.4110   68.2720 N.3   305  LEU305     -0.1245
    134  CA        -7.7890   33.7820   68.1940 C.3   305  LEU305      0.1561
    135  C         -9.0260   33.8890   67.2790 C.2   305  LEU305      0.2260
    136  O         -9.9410   34.6740   67.6090 O.2   305  LEU305     -0.2867
    137  CB        -6.6360   34.6430   67.6610 C.3   305  LEU305      0.0270
    138  CG        -5.4970   34.7810   68.7210 C.3   305  LEU305      0.0019
    139  CD1       -4.1840   35.1750   68.0680 C.3   305  LEU305      0.0001
    140  CD2       -5.9070   35.8200   69.7370 C.3   305  LEU305      0.0001
    141  N        -12.0210   32.8310   69.3060 N.3   308  SER308     -0.1217
    142  CA       -12.4610   33.9130   70.1840 C.3   308  SER308      0.1889
    143  C        -13.2170   34.9570   69.4110 C.2   308  SER308      0.2288
    144  O        -14.2310   35.4920   69.9100 O.2   308  SER308     -0.2866
    145  CB       -11.2310   34.5290   70.8990 C.3   308  SER308      0.2089
    146  OG       -10.6870   33.6060   71.7950 O.3   308  SER308     -0.2183
    147  N          8.8220   40.3420   75.6030 N.3   407  ASN407     -0.1240
    148  CA         8.5070   39.3570   76.6470 C.3   407  ASN407      0.1653
    149  C          9.0230   37.9540   76.3200 C.2   407  ASN407      0.2266
    150  O          8.4400   36.9610   76.7360 O.2   407  ASN407     -0.2867
    151  CB         7.0110   39.3240   76.9360 C.3   407  ASN407      0.1155
    152  CG         6.5490   40.5910   77.6340 C.2   407  ASN407      0.2627
    153  OD1        7.3680   41.4190   78.0650 O.2   407  ASN407     -0.2716
    154  ND2        5.1900   40.8020   77.6080 N.am  407  ASN407     -0.0877
    155  N          9.1120   36.6080   73.3180 N.3   409  GLU409     -0.1245
    156  CA         8.2650   36.0360   72.2840 C.3   409  GLU409      0.1567
    157  C          8.6530   36.6000   70.9200 C.2   409  GLU409      0.2260
    158  O          8.7300   37.8130   70.7600 O.2   409  GLU409     -0.2867
    159  CB         6.7980   36.3740   72.5720 C.3   409  GLU409      0.0388
    160  CG         6.3840   36.0450   74.0200 C.3   409  GLU409      0.1160
    161  CD         4.8540   36.1500   74.1100 C.2   409  GLU409      0.3649
    162  OE1        4.2350   35.0770   74.0920 O.co2 409  GLU409     -0.2457
    163  OE2        4.3540   37.3080   74.1840 O.co2 409  GLU409     -0.2457
    164  N          9.3660   45.4350   70.6320 N.3   462  TRP462     -0.1241
    165  CA         8.2020   46.3090   70.6040 C.3   462  TRP462      0.1605
    166  C          8.0910   47.1280   69.3400 C.2   462  TRP462      0.2264
    167  O          7.4870   48.2070   69.3550 O.2   462  TRP462     -0.2867
    168  CB         8.0620   47.1770   71.8800 C.3   462  TRP462      0.0550
    169  CG         8.1860   46.3190   73.1270 C.ar  462  TRP462      0.0003
    170  CD1        9.1470   46.4050   74.1050 C.ar  462  TRP462      0.0946
    171  CD2        7.3110   45.2460   73.5030 C.ar  462  TRP462      0.0152
    172  NE1        8.9220   45.4290   75.0520 N.ar  462  TRP462     -0.2442
    173  CE2        7.7940   44.7070   74.7160 C.ar  462  TRP462      0.0810
    174  CE3        6.1130   44.6890   72.9540 C.ar  462  TRP462      0.0012
    175  CZ2        7.1380   43.6540   75.3930 C.ar  462  TRP462      0.0191
    176  CZ3        5.4860   43.6400   73.5990 C.ar  462  TRP462      0.0001
    177  CH2        6.0030   43.1550   74.8320 C.ar  462  TRP462      0.0015
    178  N          8.1750   30.7720   76.8800 N.3   595  ASN595     -0.1240
    179  CA         7.1470   29.9410   77.4810 C.3   595  ASN595      0.1653
    180  C          6.8060   28.6770   76.7470 C.2   595  ASN595      0.2266
    181  O          5.9290   27.8940   77.1650 O.2   595  ASN595     -0.2867
    182  CB         5.8300   30.7690   77.6650 C.3   595  ASN595      0.1155
    183  CG         6.0700   32.0920   78.3390 C.2   595  ASN595      0.2627
    184  OD1        6.4910   32.1040   79.5190 O.2   595  ASN595     -0.2716
    185  ND2        5.8870   33.2590   77.5710 N.am  595  ASN595     -0.0877
@<TRIPOS>BOND
     1    53    54    1
     2    54    55    1
     3    54    57    1
     4    55    56    2
     5    57    58    1
     6    58    60   ar
     7    58    59   ar
     8    65    66    1
     9    60    62   ar
    10    89    87    1
    11   135   136    2
    12   135   134    1
    13    59    61   ar
    14    97    98    1
    15   137   134    1
    16   137   138    1
    17    62    63   ar
    18   113   112    1
    19   110   111    2
    20   110   109    1
    21   139   138    1
    22    61    63   ar
    23    98    99    1
    24    98   101    1
    25   134   133    1
    26    63    64    1
    27    66    69    1
    28    66    67    1
    29    83    84    1
    30   108    99   am
    31   108   109    1
    32    70    69    1
    33    99   100    2
    34    87    84    1
    35    87    88    1
    36   138   140    1
    37   109   112    1
    38    84    85    1
    39   141   142    1
    40   128   127    2
    41    67    71   am
    42    67    68    2
    43   166   167    2
    44   166   165    1
    45   101   102    1
    46    71    72    1
    47   143   144    2
    48   143   142    1
    49   117   116    2
    50    73    72    1
    51    73    74    2
    52   114   115    1
    53   127   126    1
    54    72    75    1
    55   142   145    1
    56    75    76    1
    57   116   115    1
    58    77    76   ar
    59    77    79   ar
    60    85    86    2
    61    85    90   am
    62   165   164    1
    63   165   168    1
    64   102   103    1
    65   158   157    2
    66   115   118    1
    67   145   146    1
    68   157   156    1
    69    76    78   ar
    70    79    81   ar
    71    90    91    1
    72   126   125    1
    73   126   129    1
    74   118   119    1
    75   103   104    1
    76   131   130    2
    77   168   169    1
    78   130   132   am
    79   130   129    1
    80   119   120    1
    81   156   159    1
    82   156   155    1
    83    78    80   ar
    84   120   121    1
    85   106   105    1
    86   159   160    1
    87    81    80   ar
    88    81    82    1
    89   123   122    1
    90    91    92    1
    91    91    94    1
    92    92    93    2
    93   121   122    2
    94   174   171   ar
    95   174   176   ar
    96   104   105    2
    97   122   124    1
    98   169   171   ar
    99   169   170   ar
   100   105   107    1
   101    94    96    1
   102    94    95    1
   103   171   173   ar
   104   176   177   ar
   105   160   161    1
   106   162   161   ar
   107   170   172   ar
   108   161   163   ar
   109   173   172   ar
   110   173   175   ar
   111   177   175   ar
   112   147   148    1
   113   149   148    1
   114   149   150    2
   115   148   151    1
   116   180   181    2
   117   180   179    1
   118   178   179    1
   119   151   152    1
   120   179   182    1
   121   185   183   am
   122   154   152   am
   123   152   153    2
   124   182   183    1
   125    52    50   ar
   126    45    46    1
   127   183   184    2
   128    51    50   ar
   129    50    49    1
   130    22    20   ar
   131    22    23   ar
   132    49    46    1
   133    46    47    1
   134    43    42    1
   135    20    19   ar
   136    25    23   ar
   137    25    27   ar
   138    23    21   ar
   139    19    21   ar
   140    19    18    1
   141    27    26   ar
   142    42    44    1
   143    42    41    2
   144    21    24   ar
   145    47    48    2
   146    13    11   am
   147    18    15    1
   148    12    11    2
   149    26    24   ar
   150    41    40    1
   151    11    10    1
   152    40    39    1
   153    15    14    1
   154    15    16    1
   155    10     7    1
   156    39    38    1
   157    16    17    2
   158    16    28   am
   159     7     8    1
   160     7     6    1
   161    38    35    1
   162     5     2    1
   163    28    29    1
   164     8     9    2
   165    33    32    1
   166    29    32    1
   167    29    30    1
   168     2     3    1
   169     2     1    1
   170    35    34    1
   171    35    36    1
   172     4     3    2
   173    36    37    2
   174    30    31    2
