@<TRIPOS>MOLECULE
tmp/1rwmB00.pdb
 123 122 0 0 0
SMALL
GASTEIGER

@<TRIPOS>ATOM
      1  N         38.5100   56.5880    9.2140 N.3    22  VAL22      -0.1231
      2  CA        37.6820   57.5580    8.4940 C.3    22  VAL22       0.1692
      3  C         38.4590   58.7830    8.0120 C.2    22  VAL22       0.2593
      4  O         39.5410   59.0930    8.5210 O.2    22  VAL22      -0.2718
      5  CB        36.4590   58.0240    9.3390 C.3    22  VAL22       0.0266
      6  CG1       35.5260   56.8610    9.6290 C.3    22  VAL22       0.0020
      7  CG2       36.9010   58.6940   10.6310 C.3    22  VAL22       0.0020
      8  N         37.8910   59.4600    7.0180 N.am   23  SER23      -0.1938
      9  CA        38.3950   60.7450    6.5560 C.3    23  SER23       0.2055
     10  C         37.2510   61.7400    6.6360 C.2    23  SER23       0.2643
     11  O         36.1270   61.4340    6.2240 O.2    23  SER23      -0.2714
     12  CB        38.9290   60.6470    5.1260 C.3    23  SER23       0.2130
     13  OG        39.9130   59.6330    5.0150 O.3    23  SER23      -0.2179
     14  N         37.5420   62.9270    7.1660 N.am   24  TRP24      -0.1959
     15  CA        36.5090   63.9050    7.4940 C.3    24  TRP24       0.1771
     16  C         36.2020   64.8840    6.3640 C.2    24  TRP24       0.2620
     17  O         36.9720   65.0090    5.4060 O.2    24  TRP24      -0.2715
     18  CB        36.8860   64.6600    8.7710 C.3    24  TRP24       0.0590
     19  CG        36.9490   63.7710    9.9740 C.ar   24  TRP24       0.0006
     20  CD1       38.0440   63.1150   10.4480 C.ar   24  TRP24       0.0946
     21  CD2       35.8700   63.4320   10.8510 C.ar   24  TRP24       0.0152
     22  NE1       37.7170   62.3900   11.5670 N.ar   24  TRP24      -0.2442
     23  CE2       36.3870   62.5660   11.8390 C.ar   24  TRP24       0.0810
     24  CE3       34.5110   63.7760   10.9090 C.ar   24  TRP24       0.0012
     25  CZ2       35.5990   62.0420   12.8700 C.ar   24  TRP24       0.0191
     26  CZ3       33.7270   63.2510   11.9330 C.ar   24  TRP24       0.0001
     27  CH2       34.2750   62.3930   12.8980 C.ar   24  TRP24       0.0015
     28  N         35.0640   65.5690    6.4910 N.am   25  ARG25      -0.1963
     29  CA        34.6220   66.5680    5.5180 C.3    25  ARG25       0.1729
     30  C         33.6520   67.5850    6.1420 C.2    25  ARG25       0.2616
     31  O         32.6210   67.2100    6.7050 O.2    25  ARG25      -0.2715
     32  CB        33.9820   65.8750    4.3090 C.3    25  ARG25       0.0348
     33  CG        33.4560   66.8210    3.2350 C.3    25  ARG25       0.0492
     34  CD        32.6280   66.1550    2.1430 C.3    25  ARG25       0.2205
     35  NE        32.0690   64.8600    2.5390 N.pl3  25  ARG25      -0.0865
     36  CZ        30.8920   64.6980    3.1300 C.cat  25  ARG25       0.5346
     37  NH1       30.1370   65.7490    3.4110 N.pl3  25  ARG25       0.1354
     38  NH2       30.4640   63.4830    3.4440 N.pl3  25  ARG25       0.1354
     39  N         34.0010   68.8660    6.0390 N.am   26  HIS26      -0.1960
     40  CA        33.1530   69.9710    6.4940 C.3    26  HIS26       0.1772
     41  C         32.1500   70.3350    5.3890 C.2    26  HIS26       0.2462
     42  O         32.5260   70.3660    4.2130 O.2    26  HIS26      -0.2730
     43  CB        34.0280   71.1800    6.8490 C.3    26  HIS26       0.0785
     44  CG        33.3120   72.2520    7.6110 C.ar   26  HIS26       0.0821
     45  ND1       33.1110   72.1890    8.9730 N.ar   26  HIS26      -0.2267
     46  CD2       32.7580   73.4180    7.2020 C.ar   26  HIS26       0.1154
     47  CE1       32.4630   73.2690    9.3710 C.ar   26  HIS26       0.1986
     48  NE2       32.2370   74.0310    8.3150 N.ar   26  HIS26      -0.2212
     49  N         30.8890   70.6010    5.7530 N.am   27  PRO27      -0.2727
     50  CA        29.8260   70.8400    4.7620 C.3    27  PRO27       0.1402
     51  C         29.9570   72.1380    3.9570 C.2    27  PRO27       0.2269
     52  O         29.3940   72.2150    2.8590 O.2    27  PRO27      -0.2865
     53  CB        28.5520   70.8560    5.6120 C.3    27  PRO27       0.0296
     54  CG        28.9510   70.2050    6.8960 C.3    27  PRO27       0.0237
     55  CD        30.3590   70.6640    7.1250 C.3    27  PRO27       0.0939
     56  N         36.5940   68.8120    2.1920 N.3    31  SER31      -0.1202
     57  CA        37.4050   67.8150    2.8920 C.3    31  SER31       0.2020
     58  C         38.7100   68.3920    3.4350 C.2    31  SER31       0.2618
     59  O         39.3670   69.2010    2.7750 O.2    31  SER31      -0.2717
     60  CB        37.7060   66.6340    1.9780 C.3    31  SER31       0.2103
     61  OG        36.5230   66.1230    1.3930 O.3    31  SER31      -0.2182
     62  N         39.0730   67.9630    4.6410 N.am   32  VAL32      -0.1979
     63  CA        40.2820   68.4290    5.3230 C.3    32  VAL32       0.1595
     64  C         41.5440   68.0430    4.5540 C.2    32  VAL32       0.2287
     65  O         42.4410   68.8700    4.3700 O.2    32  VAL32      -0.2864
     66  CB        40.3810   67.8660    6.7600 C.3    32  VAL32       0.0276
     67  CG1       41.5110   68.5410    7.5230 C.3    32  VAL32       0.0022
     68  CG2       39.0550   68.0230    7.5040 C.3    32  VAL32       0.0022
     69  N         44.0470   70.6560    2.8640 N.3    36  ARG36      -0.1245
     70  CA        45.4170   70.6260    3.3610 C.3    36  ARG36       0.1563
     71  C         46.4130   70.3560    2.2300 C.2    36  ARG36       0.2260
     72  O         47.4950   70.9400    2.2080 O.2    36  ARG36      -0.2867
     73  CB        45.5600   69.6020    4.4920 C.3    36  ARG36       0.0307
     74  CG        46.7430   69.8440    5.4350 C.3    36  ARG36       0.0489
     75  CD        46.5640   70.9820    6.4630 C.3    36  ARG36       0.2205
     76  NE        45.3920   70.7950    7.3190 N.pl3  36  ARG36      -0.0865
     77  CZ        45.3690   70.0680    8.4340 C.cat  36  ARG36       0.5346
     78  NH1       46.4600   69.4420    8.8610 N.pl3  36  ARG36       0.1354
     79  NH2       44.2450   69.9630    9.1280 N.pl3  36  ARG36       0.1354
     80  N         49.1010   66.8360   10.1860 N.3    61  PHE61      -0.1241
     81  CA        48.0630   66.0720   10.8740 C.3    61  PHE61       0.1605
     82  C         48.5810   65.4640   12.1840 C.2    61  PHE61       0.2264
     83  O         47.8030   64.9220   12.9730 O.2    61  PHE61      -0.2867
     84  CB        47.5200   64.9680    9.9560 C.3    61  PHE61       0.0534
     85  CG        46.4740   65.4420    8.9780 C.ar   61  PHE61      -0.0203
     86  CD1       45.1370   65.5630    9.3630 C.ar   61  PHE61      -0.0042
     87  CD2       46.8230   65.7670    7.6680 C.ar   61  PHE61      -0.0042
     88  CE1       44.1670   66.0040    8.4570 C.ar   61  PHE61      -0.0003
     89  CE2       45.8630   66.2090    6.7560 C.ar   61  PHE61      -0.0003
     90  CZ        44.5330   66.3270    7.1520 C.ar   61  PHE61      -0.0000
     91  N         42.9730   65.9600   17.3040 N.3    65  ASP65      -0.1239
     92  CA        41.9940   66.6990   18.0910 C.3    65  ASP65       0.1674
     93  C         40.6630   65.9390   18.0970 C.2    65  ASP65       0.2266
     94  O         40.6520   64.7030   18.1690 O.2    65  ASP65      -0.2867
     95  CB        41.8290   68.1150   17.5290 C.3    65  ASP65       0.1410
     96  CG        41.7400   68.1350   16.0080 C.2    65  ASP65       0.3668
     97  OD1       40.6270   68.3490   15.4820 O.co2  65  ASP65      -0.2456
     98  OD2       42.7260   67.9430   15.2590 O.co2  65  ASP65      -0.2456
     99  N         38.5200   65.5200   15.6780 N.3    67  ARG67      -0.1231
    100  CA        38.4920   64.6860   14.4800 C.3    67  ARG67       0.1694
    101  C         39.9200   64.3810   14.0500 C.2    67  ARG67       0.2592
    102  O         40.6920   65.2930   13.7560 O.2    67  ARG67      -0.2718
    103  CB        37.7360   65.3790   13.3380 C.3    67  ARG67       0.0321
    104  CG        37.0230   66.6670   13.7160 C.3    67  ARG67       0.0489
    105  CD        35.5250   66.5130   13.8710 C.3    67  ARG67       0.2205
    106  NE        34.9120   67.6780   14.5040 N.pl3  67  ARG67      -0.0865
    107  CZ        33.6300   67.7580   14.8520 C.cat  67  ARG67       0.5346
    108  NH1       32.8060   66.7370   14.6330 N.pl3  67  ARG67       0.1354
    109  NH2       33.1680   68.8650   15.4250 N.pl3  67  ARG67       0.1354
    110  N         40.2710   63.0990   14.0220 N.am   68  ALA68      -0.1966
    111  CA        41.6270   62.6960   13.6630 C.3    68  ALA68       0.1728
    112  C         41.6890   61.8050   12.4270 C.2    68  ALA68       0.2616
    113  O         40.8220   60.9520   12.2160 O.2    68  ALA68      -0.2715
    114  CB        42.3080   62.0220   14.8340 C.3    68  ALA68       0.0334
    115  N         42.7210   62.0300   11.6150 N.am   69  GLN69      -0.1977
    116  CA        43.0200   61.1990   10.4520 C.3    69  GLN69       0.1601
    117  C         44.4780   61.3480   10.0450 C.2    69  GLN69       0.2287
    118  O         45.0820   62.4100   10.2110 O.2    69  GLN69      -0.2864
    119  CB        42.0810   61.5010    9.2730 C.3    69  GLN69       0.0394
    120  CG        42.3580   62.7900    8.5230 C.3    69  GLN69       0.0908
    121  CD        41.3220   63.0650    7.4560 C.2    69  GLN69       0.2608
    122  OE1       40.2990   63.7000    7.7230 O.2    69  GLN69      -0.2717
    123  NE2       41.5790   62.5850    6.2430 N.am   69  GLN69      -0.0878
@<TRIPOS>BOND
     1    61    60    1
     2    60    57    1
     3    34    35    1
     4    34    33    1
     5    56    57    1
     6    72    71    2
     7    71    70    1
     8    35    36    2
     9    59    58    2
    10    52    51    2
    11    69    70    1
    12    57    58    1
    13    36    37    1
    14    36    38    1
    15    33    32    1
    16    70    73    1
    17    58    62   am
    18    51    50    1
    19    42    41    2
    20    32    29    1
    21    65    64    2
    22    73    74    1
    23    64    63    1
    24    62    63    1
    25    50    53    1
    26    50    49    1
    27    13    12    1
    28    12     9    1
    29    63    66    1
    30    41    49   am
    31    41    40    1
    32    17    16    2
    33    74    75    1
    34    29    30    1
    35    29    28    1
    36    53    54    1
    37    49    55    1
    38    39    30   am
    39    39    40    1
    40    30    31    2
    41    11    10    2
    42   123   121   am
    43    16    28   am
    44    16    15    1
    45    75    76    1
    46    40    43    1
    47     9    10    1
    48     9     8    1
    49    10    14   am
    50    89    90   ar
    51    89    87   ar
    52    66    68    1
    53    66    67    1
    54    43    44    1
    55    54    55    1
    56     8     3   am
    57    90    88   ar
    58    14    15    1
    59    46    44   ar
    60    46    48   ar
    61    76    77    2
    62   121   122    2
    63   121   120    1
    64    15    18    1
    65    44    45   ar
    66    87    85   ar
    67     3     2    1
    68     3     4    2
    69    48    47   ar
    70    77    78    1
    71    77    79    1
    72    88    86   ar
    73     2     1    1
    74     2     5    1
    75   120   119    1
    76    18    19    1
    77    45    47   ar
    78    85    86   ar
    79    85    84    1
    80   119   116    1
    81     5     6    1
    82     5     7    1
    83    84    81    1
    84    19    20   ar
    85    19    21   ar
    86   117   118    2
    87   117   116    1
    88    80    81    1
    89    20    22   ar
    90   116   115    1
    91    21    24   ar
    92    21    23   ar
    93    81    82    1
    94    24    26   ar
    95    22    23   ar
    96   115   112   am
    97    23    25   ar
    98    26    27   ar
    99    82    83    2
   100   113   112    2
   101   112   111    1
   102    25    27   ar
   103   103   104    1
   104   103   100    1
   105   111   110    1
   106   111   114    1
   107   104   105    1
   108   102   101    2
   109   105   106    1
   110   110   101   am
   111   101   100    1
   112   100    99    1
   113   106   107    2
   114   108   107    1
   115   107   109    1
   116    98    96   ar
   117    97    96   ar
   118    96    95    1
   119    91    92    1
   120    95    92    1
   121    92    93    1
   122    93    94    2
