@<TRIPOS>MOLECULE
tmp/1rwnB00.pdb
 115 114 0 0 0
SMALL
GASTEIGER

@<TRIPOS>ATOM
      1  N         38.0540   56.5830    9.1870 N.3    22  VAL22      -0.1231
      2  CA        37.2890   57.6290    8.5120 C.3    22  VAL22       0.1692
      3  C         38.1670   58.7820    8.0260 C.2    22  VAL22       0.2593
      4  O         39.2550   59.0240    8.5540 O.2    22  VAL22      -0.2718
      5  CB        36.1490   58.1990    9.4130 C.3    22  VAL22       0.0266
      6  CG1       35.1140   57.1260    9.7310 C.3    22  VAL22       0.0020
      7  CG2       36.7040   58.8260   10.7010 C.3    22  VAL22       0.0020
      8  N         37.6790   59.4730    7.0020 N.am   23  SER23      -0.1938
      9  CA        38.2510   60.7330    6.5570 C.3    23  SER23       0.2055
     10  C         37.1730   61.7960    6.6930 C.2    23  SER23       0.2643
     11  O         35.9960   61.5320    6.4290 O.2    23  SER23      -0.2714
     12  CB        38.7210   60.6290    5.1110 C.3    23  SER23       0.2130
     13  OG        39.7280   59.6440    4.9860 O.3    23  SER23      -0.2179
     14  N         37.5770   62.9950    7.0980 N.am   24  TRP24      -0.1959
     15  CA        36.6290   64.0370    7.4720 C.3    24  TRP24       0.1771
     16  C         36.3380   65.0380    6.3590 C.2    24  TRP24       0.2620
     17  O         37.1730   65.2790    5.4820 O.2    24  TRP24      -0.2715
     18  CB        37.0960   64.7410    8.7450 C.3    24  TRP24       0.0590
     19  CG        36.9480   63.8650    9.9470 C.ar   24  TRP24       0.0006
     20  CD1       37.8890   63.0250   10.4720 C.ar   24  TRP24       0.0946
     21  CD2       35.7790   63.7140   10.7580 C.ar   24  TRP24       0.0152
     22  NE1       37.3810   62.3700   11.5690 N.ar   24  TRP24      -0.2442
     23  CE2       36.0860   62.7740   11.7680 C.ar   24  TRP24       0.0810
     24  CE3       34.4970   64.2860   10.7430 C.ar   24  TRP24       0.0012
     25  CZ2       35.1650   62.3950   12.7510 C.ar   24  TRP24       0.0191
     26  CZ3       33.5790   63.9060   11.7200 C.ar   24  TRP24       0.0001
     27  CH2       33.9210   62.9690   12.7100 C.ar   24  TRP24       0.0015
     28  N         35.1380   65.6110    6.4180 N.am   25  ARG25      -0.1963
     29  CA        34.6310   66.5260    5.4000 C.3    25  ARG25       0.1729
     30  C         33.6430   67.5090    6.0330 C.2    25  ARG25       0.2616
     31  O         32.7550   67.1020    6.7840 O.2    25  ARG25      -0.2715
     32  CB        33.9510   65.7220    4.2900 C.3    25  ARG25       0.0348
     33  CG        33.5620   66.5050    3.0510 C.3    25  ARG25       0.0492
     34  CD        32.6260   65.7410    2.1320 C.3    25  ARG25       0.2205
     35  NE        31.2370   65.8780    2.5630 N.pl3  25  ARG25      -0.0865
     36  CZ        30.5700   64.9850    3.2860 C.cat  25  ARG25       0.5346
     37  NH1       31.1440   63.8530    3.6720 N.pl3  25  ARG25       0.1354
     38  NH2       29.3120   65.2260    3.6200 N.pl3  25  ARG25       0.1354
     39  N         33.8120   68.7940    5.7270 N.am   26  HIS26      -0.1960
     40  CA        32.9390   69.8610    6.2260 C.3    26  HIS26       0.1772
     41  C         31.9330   70.2900    5.1490 C.2    26  HIS26       0.2462
     42  O         32.3160   70.4780    3.9930 O.2    26  HIS26      -0.2730
     43  CB        33.7810   71.0630    6.6710 C.3    26  HIS26       0.0785
     44  CG        33.0060   72.1090    7.4130 C.ar   26  HIS26       0.0821
     45  ND1       32.9290   72.1440    8.7880 N.ar   26  HIS26      -0.2267
     46  CD2       32.2750   73.1590    6.9690 C.ar   26  HIS26       0.1154
     47  CE1       32.1830   73.1690    9.1600 C.ar   26  HIS26       0.1986
     48  NE2       31.7730   73.8010    8.0750 N.ar   26  HIS26      -0.2212
     49  N         30.6600   70.4510    5.5270 N.am   27  PRO27      -0.2727
     50  CA        29.5890   70.7740    4.5690 C.3    27  PRO27       0.1402
     51  C         29.7980   72.0490    3.7440 C.2    27  PRO27       0.2269
     52  O         29.2500   72.1360    2.6430 O.2    27  PRO27      -0.2865
     53  CB        28.3550   70.9300    5.4640 C.3    27  PRO27       0.0296
     54  CG        28.6670   70.1460    6.6790 C.3    27  PRO27       0.0237
     55  CD        30.1370   70.3180    6.8990 C.3    27  PRO27       0.0939
     56  N         33.1590   73.8730    4.0280 N.3    29  MET29      -0.1230
     57  CA        34.6040   74.0580    3.8880 C.3    29  MET29       0.1702
     58  C         35.2780   72.9520    3.0700 C.2    29  MET29       0.2593
     59  O         36.4420   73.0840    2.6860 O.2    29  MET29      -0.2718
     60  CB        35.2660   74.1860    5.2640 C.3    29  MET29       0.0401
     61  CG        35.1300   75.5650    5.8990 C.3    29  MET29       0.0596
     62  SD        35.5300   75.5650    7.6610 S.3    29  MET29      -0.1393
     63  CE        37.2560   76.0770    7.6210 C.3    29  MET29       0.0692
     64  N         34.5440   71.8730    2.8050 N.am   30  GLY30      -0.1942
     65  CA        35.0600   70.7530    2.0300 C.3    30  GLY30       0.2014
     66  C         35.8480   69.7540    2.8600 C.2    30  GLY30       0.2640
     67  O         35.8280   69.8040    4.0920 O.2    30  GLY30      -0.2714
     68  N         36.5420   68.8440    2.1770 N.am   31  SER31      -0.1935
     69  CA        37.3470   67.8150    2.8350 C.3    31  SER31       0.2055
     70  C         38.6690   68.3850    3.3370 C.2    31  SER31       0.2642
     71  O         39.3490   69.1180    2.6170 O.2    31  SER31      -0.2714
     72  CB        37.6110   66.6490    1.8820 C.3    31  SER31       0.2130
     73  OG        36.4030   66.1510    1.3350 O.3    31  SER31      -0.2179
     74  N         39.0270   68.0380    4.5720 N.am   32  VAL32      -0.1977
     75  CA        40.2410   68.5580    5.2070 C.3    32  VAL32       0.1596
     76  C         41.5170   68.1030    4.4890 C.2    32  VAL32       0.2287
     77  O         42.4450   68.8930    4.3110 O.2    32  VAL32      -0.2864
     78  CB        40.2860   68.2320    6.7320 C.3    32  VAL32       0.0276
     79  CG1       40.2910   66.7350    6.9800 C.3    32  VAL32       0.0022
     80  CG2       41.4790   68.8930    7.4060 C.3    32  VAL32       0.0022
     81  N         41.7430   70.1220    1.1350 N.3    35  GLY35      -0.1210
     82  CA        42.1310   71.4890    1.4400 C.3    35  GLY35       0.1956
     83  C         43.5820   71.6020    1.8680 C.2    35  GLY35       0.2611
     84  O         44.3040   72.4950    1.4160 O.2    35  GLY35      -0.2717
     85  N         44.0050   70.6880    2.7390 N.am   36  ARG36      -0.1979
     86  CA        45.3860   70.6290    3.2140 C.3    36  ARG36       0.1597
     87  C         46.3600   70.3380    2.0730 C.2    36  ARG36       0.2287
     88  O         47.4280   70.9510    1.9960 O.2    36  ARG36      -0.2864
     89  CB        45.5200   69.5740    4.3210 C.3    36  ARG36       0.0334
     90  CG        46.6210   69.8400    5.3430 C.3    36  ARG36       0.0492
     91  CD        46.3260   70.9520    6.3570 C.3    36  ARG36       0.2205
     92  NE        45.1950   70.6530    7.2350 N.pl3  36  ARG36      -0.0865
     93  CZ        45.2740   69.9890    8.3870 C.cat  36  ARG36       0.5346
     94  NH1       46.4360   69.5230    8.8270 N.pl3  36  ARG36       0.1354
     95  NH2       44.1800   69.7840    9.1040 N.pl3  36  ARG36       0.1354
     96  N         46.7780   73.4570   -0.2470 N.3    39  GLU39      -0.1245
     97  CA        47.6190   74.4290    0.4530 C.3    39  GLU39       0.1567
     98  C         49.0990   74.0670    0.3600 C.2    39  GLU39       0.2260
     99  O         49.9280   74.9070    0.0070 O.2    39  GLU39      -0.2867
    100  CB        47.2030   74.5290    1.9220 C.3    39  GLU39       0.0388
    101  CG        46.2930   75.7030    2.2450 C.3    39  GLU39       0.1160
    102  CD        45.3980   75.4420    3.4470 C.2    39  GLU39       0.3649
    103  OE1       44.2040   75.8070    3.3870 O.co2  39  GLU39      -0.2457
    104  OE2       45.8820   74.8760    4.4530 O.co2  39  GLU39      -0.2457
    105  N         38.7490   65.3690   15.3430 N.3    67  ARG67      -0.1245
    106  CA        38.5230   64.6790   14.0760 C.3    67  ARG67       0.1563
    107  C         39.8580   64.2630   13.4710 C.2    67  ARG67       0.2260
    108  O         40.2990   64.8210   12.4660 O.2    67  ARG67      -0.2867
    109  CB        37.7670   65.5850   13.0980 C.3    67  ARG67       0.0307
    110  CG        36.3510   65.9440   13.5210 C.3    67  ARG67       0.0489
    111  CD        36.0170   67.4330   13.4390 C.3    67  ARG67       0.2205
    112  NE        37.0460   68.2260   12.7620 N.pl3  67  ARG67      -0.0865
    113  CZ        37.4720   69.4170   13.1720 C.cat  67  ARG67       0.5346
    114  NH1       36.9660   69.9750   14.2660 N.pl3  67  ARG67       0.1354
    115  NH2       38.4100   70.0580   12.4870 N.pl3  67  ARG67       0.1354
@<TRIPOS>BOND
     1    96    97    1
     2    99    98    2
     3    98    97    1
     4    97   100    1
     5    81    82    1
     6    73    72    1
     7    84    83    2
     8    82    83    1
     9    83    85   am
    10    72    69    1
    11   100   101    1
    12    88    87    2
    13    65    64    1
    14    65    66    1
    15    87    86    1
    16    34    35    1
    17    34    33    1
    18    68    69    1
    19    68    66   am
    20   101   102    1
    21    35    36    2
    22    71    70    2
    23    52    51    2
    24    59    58    2
    25    85    86    1
    26    64    58   am
    27    69    70    1
    28    66    67    2
    29    33    32    1
    30    58    57    1
    31    86    89    1
    32    36    38    1
    33    36    37    1
    34    70    74   am
    35   103   102   ar
    36   102   104   ar
    37    51    50    1
    38    57    56    1
    39    57    60    1
    40    42    41    2
    41    32    29    1
    42    77    76    2
    43    89    90    1
    44    76    75    1
    45    50    53    1
    46    50    49    1
    47    74    75    1
    48    13    12    1
    49    12     9    1
    50    41    49   am
    51    41    40    1
    52    75    78    1
    53    60    61    1
    54    90    91    1
    55    29    30    1
    56    29    28    1
    57    53    54    1
    58    17    16    2
    59    49    55    1
    60    39    30   am
    61    39    40    1
    62    61    62    1
    63    30    31    2
    64    40    43    1
    65    91    92    1
    66    16    28   am
    67    16    15    1
    68    11    10    2
    69     9    10    1
    70     9     8    1
    71    43    44    1
    72    54    55    1
    73    10    14   am
    74    78    79    1
    75    78    80    1
    76    46    44   ar
    77    46    48   ar
    78     8     3   am
    79    14    15    1
    80    92    93    2
    81    44    45   ar
    82    15    18    1
    83    63    62    1
    84     3     2    1
    85     3     4    2
    86    48    47   ar
    87    93    94    1
    88    93    95    1
    89     2     1    1
    90     2     5    1
    91    18    19    1
    92    45    47   ar
    93     5     6    1
    94     5     7    1
    95    19    20   ar
    96    19    21   ar
    97    20    22   ar
    98    24    21   ar
    99    24    26   ar
   100    21    23   ar
   101    22    23   ar
   102    26    27   ar
   103    23    25   ar
   104   108   107    2
   105   115   113    1
   106    27    25   ar
   107   112   113    2
   108   112   111    1
   109   109   110    1
   110   109   106    1
   111   113   114    1
   112   111   110    1
   113   107   106    1
   114   106   105    1
