@<TRIPOS>MOLECULE
tmp/1rwoB00.pdb
 115 114 0 0 0
SMALL
GASTEIGER

@<TRIPOS>ATOM
      1  N         38.4620   56.6920    9.2960 N.3    22  VAL22      -0.1231
      2  CA        37.6520   57.7350    8.6700 C.3    22  VAL22       0.1692
      3  C         38.4840   58.9120    8.1600 C.2    22  VAL22       0.2593
      4  O         39.6110   59.1400    8.6110 O.2    22  VAL22      -0.2718
      5  CB        36.5390   58.2630    9.6290 C.3    22  VAL22       0.0266
      6  CG1       35.5760   57.1470   10.0110 C.3    22  VAL22       0.0020
      7  CG2       37.1360   58.9160   10.8810 C.3    22  VAL22       0.0020
      8  N         37.9110   59.6430    7.2080 N.am   23  SER23      -0.1938
      9  CA        38.4640   60.9080    6.7420 C.3    23  SER23       0.2055
     10  C         37.3890   61.9810    6.8420 C.2    23  SER23       0.2643
     11  O         36.2210   61.7290    6.5390 O.2    23  SER23      -0.2714
     12  CB        38.9640   60.7810    5.3080 C.3    23  SER23       0.2130
     13  OG        40.0590   59.8880    5.2510 O.3    23  SER23      -0.2179
     14  N         37.7890   63.1760    7.2580 N.am   24  TRP24      -0.1959
     15  CA        36.8310   64.2150    7.6180 C.3    24  TRP24       0.1771
     16  C         36.5290   65.2180    6.5020 C.2    24  TRP24       0.2620
     17  O         37.3620   65.4670    5.6270 O.2    24  TRP24      -0.2715
     18  CB        37.2850   64.9200    8.8970 C.3    24  TRP24       0.0590
     19  CG        37.1640   64.0330   10.1000 C.ar   24  TRP24       0.0006
     20  CD1       38.0710   63.1030   10.5310 C.ar   24  TRP24       0.0946
     21  CD2       36.0630   63.9680   11.0110 C.ar   24  TRP24       0.0152
     22  NE1       37.6050   62.4720   11.6590 N.ar   24  TRP24      -0.2442
     23  CE2       36.3730   62.9830   11.9780 C.ar   24  TRP24       0.0810
     24  CE3       34.8410   64.6490   11.1180 C.ar   24  TRP24       0.0012
     25  CZ2       35.5100   62.6640   13.0340 C.ar   24  TRP24       0.0191
     26  CZ3       33.9840   64.3320   12.1670 C.ar   24  TRP24       0.0001
     27  CH2       34.3250   63.3470   13.1120 C.ar   24  TRP24       0.0015
     28  N         35.3220   65.7780    6.5530 N.am   25  ARG25      -0.1963
     29  CA        34.8480   66.7600    5.5800 C.3    25  ARG25       0.1729
     30  C         33.8860   67.7450    6.2500 C.2    25  ARG25       0.2616
     31  O         33.0370   67.3490    7.0500 O.2    25  ARG25      -0.2715
     32  CB        34.1680   66.0450    4.4070 C.3    25  ARG25       0.0348
     33  CG        33.6010   66.9530    3.3140 C.3    25  ARG25       0.0492
     34  CD        32.7810   66.2230    2.2510 C.3    25  ARG25       0.2205
     35  NE        32.1970   64.9800    2.7550 N.pl3  25  ARG25      -0.0865
     36  CZ        31.0130   64.8820    3.3560 C.cat  25  ARG25       0.5346
     37  NH1       30.2540   65.9560    3.5340 N.pl3  25  ARG25       0.1354
     38  NH2       30.5860   63.7000    3.7820 N.pl3  25  ARG25       0.1354
     39  N         34.0420   69.0260    5.9220 N.am   26  HIS26      -0.1960
     40  CA        33.1870   70.1000    6.4280 C.3    26  HIS26       0.1772
     41  C         32.1880   70.5300    5.3470 C.2    26  HIS26       0.2462
     42  O         32.5650   70.6520    4.1790 O.2    26  HIS26      -0.2730
     43  CB        34.0510   71.2910    6.8520 C.3    26  HIS26       0.0785
     44  CG        33.3160   72.3270    7.6450 C.ar   26  HIS26       0.0821
     45  ND1       33.1900   72.2650    9.0160 N.ar   26  HIS26      -0.2267
     46  CD2       32.6740   73.4550    7.2590 C.ar   26  HIS26       0.1154
     47  CE1       32.4990   73.3090    9.4400 C.ar   26  HIS26       0.1986
     48  NE2       32.1750   74.0470    8.3940 N.ar   26  HIS26      -0.2212
     49  N         30.9250   70.7550    5.7300 N.am   27  PRO27      -0.2727
     50  CA        29.8640   71.1100    4.7720 C.3    27  PRO27       0.1402
     51  C         30.1290   72.3610    3.9310 C.2    27  PRO27       0.2269
     52  O         29.6050   72.4430    2.8200 O.2    27  PRO27      -0.2865
     53  CB        28.6420   71.3370    5.6700 C.3    27  PRO27       0.0296
     54  CG        28.9240   70.5580    6.8970 C.3    27  PRO27       0.0237
     55  CD        30.4020   70.6650    7.1070 C.3    27  PRO27       0.0939
     56  N         33.5370   74.1080    4.2190 N.3    29  MET29      -0.1230
     57  CA        34.9850   74.2610    4.0740 C.3    29  MET29       0.1702
     58  C         35.6220   73.1660    3.2100 C.2    29  MET29       0.2593
     59  O         36.7550   73.3150    2.7470 O.2    29  MET29      -0.2718
     60  CB        35.6610   74.3290    5.4470 C.3    29  MET29       0.0401
     61  CG        35.4120   75.6310    6.1970 C.3    29  MET29       0.0596
     62  SD        36.4130   75.7860    7.6880 S.3    29  MET29      -0.1393
     63  CE        37.8650   76.6100    7.0330 C.3    29  MET29       0.0692
     64  N         34.8880   72.0760    2.9950 N.am   30  GLY30      -0.1942
     65  CA        35.3640   70.9670    2.1860 C.3    30  GLY30       0.2014
     66  C         36.0840   69.9040    2.9960 C.2    30  GLY30       0.2640
     67  O         35.9230   69.8230    4.2150 O.2    30  GLY30      -0.2714
     68  N         36.8760   69.0850    2.3100 N.am   31  SER31      -0.1935
     69  CA        37.6450   68.0230    2.9510 C.3    31  SER31       0.2055
     70  C         38.9940   68.5490    3.4200 C.2    31  SER31       0.2642
     71  O         39.7380   69.1500    2.6420 O.2    31  SER31      -0.2714
     72  CB        37.8390   66.8490    1.9920 C.3    31  SER31       0.2130
     73  OG        36.5950   66.3470    1.5390 O.3    31  SER31      -0.2179
     74  N         39.3000   68.3160    4.6950 N.am   32  VAL32      -0.1977
     75  CA        40.5340   68.8150    5.3120 C.3    32  VAL32       0.1596
     76  C         41.7980   68.3350    4.5860 C.2    32  VAL32       0.2287
     77  O         42.7170   69.1210    4.3560 O.2    32  VAL32      -0.2864
     78  CB        40.5870   68.5050    6.8400 C.3    32  VAL32       0.0276
     79  CG1       40.4910   67.0100    7.1090 C.3    32  VAL32       0.0022
     80  CG2       41.8320   69.0940    7.4860 C.3    32  VAL32       0.0022
     81  N         41.9940   70.3290    1.2670 N.3    35  GLY35      -0.1210
     82  CA        42.3900   71.6930    1.5760 C.3    35  GLY35       0.1956
     83  C         43.8460   71.7960    1.9900 C.2    35  GLY35       0.2611
     84  O         44.5580   72.7080    1.5640 O.2    35  GLY35      -0.2717
     85  N         44.2850   70.8490    2.8170 N.am   36  ARG36      -0.1979
     86  CA        45.6640   70.7930    3.2910 C.3    36  ARG36       0.1597
     87  C         46.6360   70.4730    2.1530 C.2    36  ARG36       0.2287
     88  O         47.7260   71.0430    2.0860 O.2    36  ARG36      -0.2864
     89  CB        45.7910   69.7590    4.4160 C.3    36  ARG36       0.0334
     90  CG        46.7930   70.1070    5.5100 C.3    36  ARG36       0.0492
     91  CD        46.3590   71.2170    6.4710 C.3    36  ARG36       0.2205
     92  NE        45.3080   70.8160    7.4090 N.pl3  36  ARG36      -0.0865
     93  CZ        45.5000   70.1160    8.5280 C.cat  36  ARG36       0.5346
     94  NH1       46.7110   69.6980    8.8750 N.pl3  36  ARG36       0.1354
     95  NH2       44.4690   69.8220    9.3060 N.pl3  36  ARG36       0.1354
     96  N         47.0540   73.6550   -0.1550 N.3    39  GLU39      -0.1245
     97  CA        47.8930   74.6310    0.5400 C.3    39  GLU39       0.1567
     98  C         49.3790   74.2700    0.4920 C.2    39  GLU39       0.2260
     99  O         50.2210   75.1280    0.2260 O.2    39  GLU39      -0.2867
    100  CB        47.4340   74.7960    1.9910 C.3    39  GLU39       0.0388
    101  CG        46.5040   75.9780    2.2150 C.3    39  GLU39       0.1160
    102  CD        45.5880   75.8030    3.4150 C.2    39  GLU39       0.3649
    103  OE1       44.4430   76.3030    3.3600 O.co2  39  GLU39      -0.2457
    104  OE2       46.0030   75.1730    4.4140 O.co2  39  GLU39      -0.2457
    105  N         39.1910   65.3730   15.3650 N.3    67  ARG67      -0.1245
    106  CA        38.9730   64.7640   14.0540 C.3    67  ARG67       0.1563
    107  C         40.2890   64.2420   13.4900 C.2    67  ARG67       0.2260
    108  O         40.7320   64.6660   12.4190 O.2    67  ARG67      -0.2867
    109  CB        38.3610   65.7800   13.0850 C.3    67  ARG67       0.0307
    110  CG        37.0620   66.4180   13.5540 C.3    67  ARG67       0.0489
    111  CD        36.6360   67.6170   12.7240 C.3    67  ARG67       0.2205
    112  NE        37.6220   68.6970   12.7700 N.pl3  67  ARG67      -0.0865
    113  CZ        37.6200   69.6840   13.6610 C.cat  67  ARG67       0.5346
    114  NH1       36.6790   69.7460   14.5960 N.pl3  67  ARG67       0.1354
    115  NH2       38.5640   70.6150   13.6180 N.pl3  67  ARG67       0.1354
@<TRIPOS>BOND
     1    96    97    1
     2    99    98    2
     3    98    97    1
     4    97   100    1
     5    81    82    1
     6    73    72    1
     7    84    83    2
     8    82    83    1
     9    83    85   am
    10   100   101    1
    11    72    69    1
    12    88    87    2
    13    87    86    1
    14    65    64    1
    15    65    66    1
    16   101   102    1
    17    34    35    1
    18    34    33    1
    19    68    69    1
    20    68    66   am
    21    71    70    2
    22    59    58    2
    23    35    36    2
    24    85    86    1
    25    52    51    2
    26    69    70    1
    27    64    58   am
    28    66    67    2
    29    58    57    1
    30    86    89    1
    31    33    32    1
    32    36    37    1
    33    36    38    1
    34   103   102   ar
    35   102   104   ar
    36    70    74   am
    37    51    50    1
    38    57    56    1
    39    57    60    1
    40    42    41    2
    41    77    76    2
    42    32    29    1
    43    89    90    1
    44    76    75    1
    45    74    75    1
    46    50    53    1
    47    50    49    1
    48    13    12    1
    49    12     9    1
    50    75    78    1
    51    41    49   am
    52    41    40    1
    53    60    61    1
    54    90    91    1
    55    29    30    1
    56    29    28    1
    57    17    16    2
    58    53    54    1
    59    49    55    1
    60    39    30   am
    61    39    40    1
    62    61    62    1
    63    30    31    2
    64    40    43    1
    65    91    92    1
    66    16    28   am
    67    16    15    1
    68    11    10    2
    69     9    10    1
    70     9     8    1
    71    78    79    1
    72    78    80    1
    73    10    14   am
    74    43    44    1
    75    54    55    1
    76    63    62    1
    77     8     3   am
    78    14    15    1
    79    46    44   ar
    80    46    48   ar
    81    92    93    2
    82    15    18    1
    83    44    45   ar
    84     3     4    2
    85     3     2    1
    86    48    47   ar
    87    93    94    1
    88    93    95    1
    89     2     1    1
    90     2     5    1
    91    18    19    1
    92    45    47   ar
    93     5     6    1
    94     5     7    1
    95    19    20   ar
    96    19    21   ar
    97    20    22   ar
    98    21    24   ar
    99    21    23   ar
   100    24    26   ar
   101    22    23   ar
   102    23    25   ar
   103    26    27   ar
   104   108   107    2
   105   111   112    1
   106   111   110    1
   107   112   113    2
   108    25    27   ar
   109   109   110    1
   110   109   106    1
   111   107   106    1
   112   115   113    1
   113   113   114    1
   114   106   105    1
