@<TRIPOS>MOLECULE
tmp/1rwqB04.pdb
 176 172 0 0 0
SMALL
GASTEIGER

@<TRIPOS>ATOM
      1  N         56.8430   70.2220   72.2210 N.3    87  ARG87      -0.1231
      2  CA        57.7480   69.8120   73.2680 C.3    87  ARG87       0.1694
      3  C         57.1630   69.9340   74.6250 C.2    87  ARG87       0.2592
      4  O         57.3160   69.0030   75.4260 O.2    87  ARG87      -0.2718
      5  CB        59.0530   70.5250   73.2180 C.3    87  ARG87       0.0321
      6  CG        60.1300   69.9190   74.1730 C.3    87  ARG87       0.0489
      7  CD        61.3080   70.7980   74.3760 C.3    87  ARG87       0.2205
      8  NE        62.0400   71.0660   73.1270 N.pl3  87  ARG87      -0.0865
      9  CZ        62.8160   70.1870   72.4850 C.cat  87  ARG87       0.5346
     10  NH1       62.9640   68.9500   72.9550 N.pl3  87  ARG87       0.1354
     11  NH2       63.4710   70.5450   71.3880 N.pl3  87  ARG87       0.1354
     12  N         56.4710   71.0560   74.8890 N.am   88  HIS88      -0.1976
     13  CA        55.8780   71.3050   76.2150 C.3    88  HIS88       0.1656
     14  C         54.4110   71.3010   76.2630 C.2    88  HIS88       0.2291
     15  O         53.8610   70.9990   77.2810 O.2    88  HIS88      -0.2864
     16  CB        56.3970   72.6120   76.8180 C.3    88  HIS88       0.0771
     17  CG        57.8760   72.6270   76.9460 C.ar   88  HIS88       0.0820
     18  ND1       58.6850   73.2990   76.0680 N.ar   88  HIS88      -0.2267
     19  CD2       58.6990   71.9760   77.7950 C.ar   88  HIS88       0.1154
     20  CE1       59.9450   73.1240   76.4120 C.ar   88  HIS88       0.1986
     21  NE2       59.9820   72.2990   77.4390 N.ar   88  HIS88      -0.2212
     22  N         58.8790   76.6720   72.0750 N.3   167  GLU167     -0.1231
     23  CA        60.1360   76.0190   71.7620 C.3   167  GLU167      0.1699
     24  C         61.3290   76.8140   72.1130 C.2   167  GLU167      0.2592
     25  O         62.2470   76.3170   72.7620 O.2   167  GLU167     -0.2718
     26  CB        60.2450   75.6270   70.2660 C.3   167  GLU167      0.0402
     27  CG        61.6000   74.9750   69.8960 C.3   167  GLU167      0.1161
     28  CD        61.8280   73.5400   70.4860 C.2   167  GLU167      0.3649
     29  OE1       60.8860   72.9050   71.0050 O.co2 167  GLU167     -0.2457
     30  OE2       62.9500   73.0120   70.3650 O.co2 167  GLU167     -0.2457
     31  N         61.3350   78.0720   71.7040 N.am  168  GLU168     -0.1979
     32  CA        62.5320   78.8410   71.8160 C.3   168  GLU168      0.1602
     33  C         62.5400   79.9470   72.9300 C.2   168  GLU168      0.2287
     34  O         63.5900   80.4050   73.3520 O.2   168  GLU168     -0.2864
     35  CB        62.7490   79.4870   70.4670 C.3   168  GLU168      0.0415
     36  CG        62.7140   78.5580   69.2620 C.3   168  GLU168      0.1163
     37  CD        63.9670   77.7040   69.1740 C.2   168  GLU168      0.3649
     38  OE1       64.7820   77.8100   70.1010 O.co2 168  GLU168     -0.2457
     39  OE2       64.1040   76.8660   68.2380 O.co2 168  GLU168     -0.2457
     40  N         60.0240   77.9310   76.8880 N.3   171  SER171     -0.1217
     41  CA        60.2170   76.5040   77.1570 C.3   171  SER171      0.1889
     42  C         59.0330   75.9580   77.9440 C.2   171  SER171      0.2288
     43  O         59.1950   75.1100   78.8180 O.2   171  SER171     -0.2866
     44  CB        61.4090   76.2830   78.0400 C.3   171  SER171      0.2089
     45  OG        62.6020   76.6450   77.4430 O.3   171  SER171     -0.2183
     46  N         71.3470   81.1980   76.3500 N.3   319  PHE319     -0.1227
     47  CA        70.3650   81.1810   75.2640 C.3   319  PHE319      0.1736
     48  C         69.4510   82.4120   75.2370 C.2   319  PHE319      0.2595
     49  O         68.8880   82.7050   74.2210 O.2   319  PHE319     -0.2718
     50  CB        69.4980   79.9150   75.2820 C.3   319  PHE319      0.0547
     51  CG        70.2500   78.6560   74.9330 C.ar  319  PHE319     -0.0202
     52  CD1       70.2200   78.1440   73.6430 C.ar  319  PHE319     -0.0042
     53  CD2       70.9990   78.0070   75.8990 C.ar  319  PHE319     -0.0042
     54  CE1       70.8990   76.9220   73.3480 C.ar  319  PHE319     -0.0003
     55  CE2       71.6490   76.8280   75.6020 C.ar  319  PHE319     -0.0003
     56  CZ        71.6060   76.2870   74.3190 C.ar  319  PHE319     -0.0000
     57  N         69.3180   83.1200   76.3550 N.am  320  ARG320     -0.1980
     58  CA        68.4300   84.2770   76.4500 C.3   320  ARG320      0.1597
     59  C         68.7790   85.0510   77.7320 C.2   320  ARG320      0.2287
     60  O         69.4920   84.5110   78.5940 O.2   320  ARG320     -0.2864
     61  CB        66.9440   83.8610   76.4300 C.3   320  ARG320      0.0334
     62  CG        66.4250   83.1440   77.6770 C.3   320  ARG320      0.0492
     63  CD        65.1750   82.3020   77.4120 C.3   320  ARG320      0.2205
     64  NE        65.3520   81.4090   76.2510 N.pl3 320  ARG320     -0.0865
     65  CZ        65.6880   80.1170   76.3780 C.cat 320  ARG320      0.5346
     66  NH1       65.8840   79.6120   77.6010 N.pl3 320  ARG320      0.1354
     67  NH2       65.8460   79.3460   75.3070 N.pl3 320  ARG320      0.1354
     68  N         77.2170   66.8330   69.0990 N.3   509  TYR509     -0.1241
     69  CA        76.0640   67.7150   69.0630 C.3   509  TYR509      0.1605
     70  C         76.6270   69.0410   68.5590 C.2   509  TYR509      0.2264
     71  O         76.2890   69.5040   67.4550 O.2   509  TYR509     -0.2867
     72  CB        75.3970   67.8780   70.4170 C.3   509  TYR509      0.0534
     73  CG        74.1300   68.7130   70.3170 C.ar  509  TYR509     -0.0201
     74  CD1       72.9990   68.2010   69.6920 C.ar  509  TYR509     -0.0009
     75  CD2       74.0900   70.0170   70.7910 C.ar  509  TYR509     -0.0009
     76  CE1       71.8420   68.9460   69.5760 C.ar  509  TYR509      0.0417
     77  CE2       72.9430   70.8030   70.6710 C.ar  509  TYR509      0.0417
     78  CZ        71.8310   70.2400   70.0590 C.ar  509  TYR509      0.1957
     79  OH        70.6840   70.9200   69.9260 O.3   509  TYR509     -0.2866
     80  N         79.0560   68.2890   75.5850 N.3   516  LYS516     -0.1245
     81  CA        78.8800   66.8280   75.3900 C.3   516  LYS516      0.1561
     82  C         79.8840   65.9910   76.1880 C.2   516  LYS516      0.2260
     83  O         79.7830   64.7570   76.2620 O.2   516  LYS516     -0.2867
     84  CB        78.9330   66.4520   73.9120 C.3   516  LYS516      0.0271
     85  CG        77.6100   66.6840   73.1440 C.3   516  LYS516      0.0035
     86  CD        76.4690   65.6010   73.3870 C.3   516  LYS516      0.0206
     87  CE        76.6870   64.3230   72.5500 C.3   516  LYS516      0.1093
     88  NZ        75.7840   63.1900   72.9850 N.3   516  LYS516     -0.1314
     89  N         69.7550   66.1670   65.1960 N.3   592  SER592     -0.1202
     90  CA        69.4050   67.5630   65.1990 C.3   592  SER592      0.2020
     91  C         70.5170   68.4150   64.8060 C.2   592  SER592      0.2618
     92  O         71.1180   68.2430   63.7520 O.2   592  SER592     -0.2717
     93  CB        68.9920   67.9610   66.6240 C.3   592  SER592      0.2103
     94  OG        68.1710   69.1290   66.6510 O.3   592  SER592     -0.2182
     95  N         70.8180   69.3880   65.6570 N.am  593  TYR593     -0.1975
     96  CA        71.9250   70.2480   65.3220 C.3   593  TYR593      0.1639
     97  C         73.1280   69.3680   65.0880 C.2   593  TYR593      0.2290
     98  O         74.0000   69.6240   64.2160 O.2   593  TYR593     -0.2864
     99  CB        72.2920   71.2010   66.4730 C.3   593  TYR593      0.0560
    100  CG        73.2680   72.2350   66.0520 C.ar  593  TYR593     -0.0198
    101  CD1       74.6130   71.9540   65.9430 C.ar  593  TYR593     -0.0009
    102  CD2       72.8260   73.5070   65.6840 C.ar  593  TYR593     -0.0009
    103  CE1       75.5020   72.9580   65.5490 C.ar  593  TYR593      0.0417
    104  CE2       73.6950   74.4860   65.2950 C.ar  593  TYR593      0.0417
    105  CZ        75.0160   74.2220   65.2040 C.ar  593  TYR593      0.1957
    106  OH        75.8460   75.2530   64.7890 O.3   593  TYR593     -0.2866
    107  N         69.4580   69.9110   60.5300 N.3   618  VAL618     -0.1245
    108  CA        69.2560   71.1400   59.7760 C.3   618  VAL618      0.1561
    109  C         70.1610   70.9780   58.5220 C.2   618  VAL618      0.2260
    110  O         71.2400   70.3660   58.5570 O.2   618  VAL618     -0.2867
    111  CB        69.7300   72.4280   60.5660 C.3   618  VAL618      0.0252
    112  CG1       69.8270   73.7180   59.6130 C.3   618  VAL618      0.0019
    113  CG2       68.8390   72.7080   61.7950 C.3   618  VAL618      0.0019
    114  N         70.0470   76.9520   57.1320 N.3   621  TRP621     -0.1241
    115  CA        69.5230   77.7770   58.1720 C.3   621  TRP621      0.1605
    116  C         68.2620   78.5630   57.7690 C.2   621  TRP621      0.2264
    117  O         67.4030   78.7950   58.5800 O.2   621  TRP621     -0.2867
    118  CB        70.6290   78.6200   58.7360 C.3   621  TRP621      0.0550
    119  CG        71.5750   77.7740   59.5510 C.ar  621  TRP621      0.0003
    120  CD1       72.8720   77.4580   59.2640 C.ar  621  TRP621      0.0946
    121  CD2       71.2580   77.1070   60.7490 C.ar  621  TRP621      0.0152
    122  NE1       73.3820   76.6350   60.2260 N.ar  621  TRP621     -0.2442
    123  CE2       72.3910   76.3910   61.1430 C.ar  621  TRP621      0.0810
    124  CE3       70.0980   77.0090   61.5200 C.ar  621  TRP621      0.0012
    125  CZ2       72.4230   75.6480   62.2860 C.ar  621  TRP621      0.0191
    126  CZ3       70.1180   76.2750   62.6610 C.ar  621  TRP621      0.0001
    127  CH2       71.2660   75.5850   63.0350 C.ar  621  TRP621      0.0015
    128  N         65.2440   76.8710   59.3650 N.3   624  TYR624     -0.1241
    129  CA        64.9780   76.6520   60.8030 C.3   624  TYR624      0.1605
    130  C         64.2670   77.8430   61.3650 C.2   624  TYR624      0.2264
    131  O         64.1980   78.8760   60.6630 O.2   624  TYR624     -0.2867
    132  CB        66.2510   76.2560   61.5620 C.3   624  TYR624      0.0534
    133  CG        65.9210   75.6300   62.8890 C.ar  624  TYR624     -0.0201
    134  CD1       65.0700   74.5410   62.9550 C.ar  624  TYR624     -0.0009
    135  CD2       66.4300   76.1480   64.0840 C.ar  624  TYR624     -0.0009
    136  CE1       64.6880   74.0260   64.1340 C.ar  624  TYR624      0.0417
    137  CE2       66.0660   75.6180   65.2970 C.ar  624  TYR624      0.0417
    138  CZ        65.1990   74.5470   65.2990 C.ar  624  TYR624      0.1957
    139  OH        64.8360   73.9770   66.4650 O.3   624  TYR624     -0.2866
    140  N         65.8920   81.1620   67.1300 N.3   628  TYR628     -0.1241
    141  CA        67.1260   80.4800   67.4250 C.3   628  TYR628      0.1605
    142  C         68.1530   80.7460   66.3490 C.2   628  TYR628      0.2264
    143  O         69.3380   80.8540   66.5790 O.2   628  TYR628     -0.2867
    144  CB        66.7950   78.9140   67.5680 C.3   628  TYR628      0.0534
    145  CG        68.0000   78.0680   67.6760 C.ar  628  TYR628     -0.0201
    146  CD1       68.8050   77.8390   66.5540 C.ar  628  TYR628     -0.0009
    147  CD2       68.3830   77.5220   68.8980 C.ar  628  TYR628     -0.0009
    148  CE1       69.9570   77.0750   66.6220 C.ar  628  TYR628      0.0417
    149  CE2       69.5920   76.7220   68.9960 C.ar  628  TYR628      0.0417
    150  CZ        70.3440   76.5080   67.8450 C.ar  628  TYR628      0.1957
    151  OH        71.4810   75.7490   67.8870 O.3   628  TYR628     -0.2866
    152  N         59.4710   70.5360   64.0120 N.3   672  ASN672     -0.1225
    153  CA        60.5340   71.3820   64.5470 C.3   672  ASN672      0.1785
    154  C         61.6500   71.5570   63.5480 C.2   672  ASN672      0.2597
    155  O         61.8590   72.6710   63.0310 O.2   672  ASN672     -0.2718
    156  CB        61.0060   70.8050   65.8830 C.3   672  ASN672      0.1169
    157  CG        62.0230   71.6940   66.5990 C.2   672  ASN672      0.2627
    158  OD1       62.6770   72.5390   65.9950 O.2   672  ASN672     -0.2716
    159  ND2       62.1970   71.4530   67.9150 N.am  672  ASN672     -0.0877
    160  N         62.4320   70.5050   63.3020 N.am  673  VAL673     -0.1980
    161  CA        63.2950   70.6120   62.1770 C.3   673  VAL673      0.1595
    162  C         62.5510   69.9210   61.0400 C.2   673  VAL673      0.2287
    163  O         62.4420   68.7330   60.9800 O.2   673  VAL673     -0.2864
    164  CB        64.6090   69.9870   62.4240 C.3   673  VAL673      0.0276
    165  CG1       65.5050   70.1770   61.1780 C.3   673  VAL673      0.0022
    166  CG2       65.2550   70.5660   63.6950 C.3   673  VAL673      0.0022
    167  N         60.4850   65.1760   66.0670 N.3   702  HIS702     -0.1241
    168  CA        61.8670   65.4050   66.3400 C.3   702  HIS702      0.1621
    169  C         62.5110   64.4900   67.3250 C.2   702  HIS702      0.2264
    170  O         63.7310   64.4550   67.4110 O.2   702  HIS702     -0.2867
    171  CB        62.1140   66.8200   66.7600 C.3   702  HIS702      0.0745
    172  CG        63.4660   67.2640   66.3970 C.ar  702  HIS702      0.0817
    173  ND1       63.9400   67.1530   65.1090 N.ar  702  HIS702     -0.2268
    174  CD2       64.4620   67.7890   67.1350 C.ar  702  HIS702      0.1154
    175  CE1       65.1710   67.6210   65.0650 C.ar  702  HIS702      0.1986
    176  NE2       65.5070   68.0230   66.2830 N.ar  702  HIS702     -0.2212
@<TRIPOS>BOND
     1   114   115    1
     2   116   115    1
     3   116   117    2
     4   115   118    1
     5   109   110    2
     6   109   108    1
     7   118   119    1
     8   120   119   ar
     9   120   122   ar
    10   128   129    1
    11   119   121   ar
    12   112   111    1
    13   108   107    1
    14   108   111    1
    15   122   123   ar
    16   111   113    1
    17   131   130    2
    18   121   123   ar
    19   121   124   ar
    20   129   130    1
    21   129   132    1
    22   163   162    2
    23   162   161    1
    24   123   125   ar
    25   165   164    1
    26   124   126   ar
    27   132   133    1
    28   161   164    1
    29   161   160    1
    30   125   127   ar
    31   164   166    1
    32   126   127   ar
    33   133   134   ar
    34   133   135   ar
    35   134   136   ar
    36   155   154    2
    37   160   154   am
    38   154   153    1
    39    92    91    2
    40   152   153    1
    41   135   137   ar
    42   136   138   ar
    43    98    97    2
    44   153   156    1
    45   106   105    1
    46    91    90    1
    47    91    95   am
    48   175   173   ar
    49   175   176   ar
    50    97    96    1
    51   173   172   ar
    52    89    90    1
    53    90    93    1
    54   105   104   ar
    55   105   103   ar
    56   104   102   ar
    57   137   138   ar
    58   138   139    1
    59    96    95    1
    60    96    99    1
    61   103   101   ar
    62   102   100   ar
    63   156   157    1
    64   101   100   ar
    65   158   157    2
    66   100    99    1
    67   167   168    1
    68   176   174   ar
    69   168   171    1
    70   168   169    1
    71   142   143    2
    72   142   141    1
    73   172   171    1
    74   172   174   ar
    75   146   148   ar
    76   146   145   ar
    77   157   159   am
    78   148   150   ar
    79    93    94    1
    80   140   141    1
    81   169   170    2
    82   141   144    1
    83    71    70    2
    84   144   145    1
    85   145   147   ar
    86   150   151    1
    87   150   149   ar
    88    39    37   ar
    89    70    69    1
    90   147   149   ar
    91    69    68    1
    92    69    72    1
    93    37    36    1
    94    37    38   ar
    95    36    35    1
    96    76    74   ar
    97    76    78   ar
    98    74    73   ar
    99    27    26    1
   100    27    28    1
   101    79    78    1
   102    78    77   ar
   103    26    23    1
   104    73    72    1
   105    73    75   ar
   106    30    28   ar
   107    35    32    1
   108    28    29   ar
   109    77    75   ar
   110    11     9    1
   111    31    32    1
   112    31    24   am
   113    23    22    1
   114    23    24    1
   115    32    33    1
   116    24    25    2
   117     1     2    1
   118     9    10    1
   119     9     8    2
   120    87    88    1
   121    87    86    1
   122    33    34    2
   123     8     7    1
   124    85    86    1
   125    85    84    1
   126     5     2    1
   127     5     6    1
   128     2     3    1
   129    54    52   ar
   130    54    56   ar
   131    52    51   ar
   132    84    81    1
   133     6     7    1
   134    49    48    2
   135    56    55   ar
   136     3    12   am
   137     3     4    2
   138    12    13    1
   139    51    50    1
   140    51    53   ar
   141    48    47    1
   142    48    57   am
   143    47    50    1
   144    47    46    1
   145    67    65    1
   146    81    80    1
   147    81    82    1
   148    55    53   ar
   149    18    20   ar
   150    18    17   ar
   151    82    83    2
   152    13    14    1
   153    13    16    1
   154    64    65    2
   155    64    63    1
   156    14    15    2
   157    57    58    1
   158    65    66    1
   159    20    21   ar
   160    61    58    1
   161    61    62    1
   162    58    59    1
   163    16    17    1
   164    40    41    1
   165    17    19   ar
   166    41    42    1
   167    41    44    1
   168    63    62    1
   169    21    19   ar
   170    45    44    1
   171    59    60    2
   172    42    43    2
