@<TRIPOS>MOLECULE
tmp/1rwwB00.pdb
 115 114 0 0 0
SMALL
GASTEIGER

@<TRIPOS>ATOM
      1  N         37.8230   56.4160    9.1190 N.3    22  VAL22      -0.1231
      2  CA        37.0320   57.4120    8.4090 C.3    22  VAL22       0.1692
      3  C         37.8710   58.6070    7.9650 C.2    22  VAL22       0.2593
      4  O         38.9610   58.8510    8.4970 O.2    22  VAL22      -0.2718
      5  CB        35.8320   57.9230    9.2610 C.3    22  VAL22       0.0266
      6  CG1       34.9680   56.7610    9.7450 C.3    22  VAL22       0.0020
      7  CG2       36.3100   58.7690   10.4360 C.3    22  VAL22       0.0020
      8  N         37.3500   59.3350    6.9800 N.am   23  SER23      -0.1938
      9  CA        37.8990   60.6240    6.5760 C.3    23  SER23       0.2055
     10  C         36.8170   61.6920    6.7120 C.2    23  SER23       0.2643
     11  O         35.6600   61.4710    6.3340 O.2    23  SER23      -0.2714
     12  CB        38.4300   60.5620    5.1480 C.3    23  SER23       0.2130
     13  OG        39.4390   59.5780    5.0360 O.3    23  SER23      -0.2179
     14  N         37.2010   62.8440    7.2520 N.am   24  TRP24      -0.1959
     15  CA        36.2420   63.8730    7.6470 C.3    24  TRP24       0.1771
     16  C         35.9650   64.8970    6.5560 C.2    24  TRP24       0.2620
     17  O         36.7940   65.1160    5.6760 O.2    24  TRP24      -0.2715
     18  CB        36.7060   64.5560    8.9330 C.3    24  TRP24       0.0590
     19  CG        36.8880   63.5850   10.0560 C.ar   24  TRP24       0.0006
     20  CD1       38.0480   62.9720   10.4310 C.ar   24  TRP24       0.0946
     21  CD2       35.8740   63.0940   10.9370 C.ar   24  TRP24       0.0152
     22  NE1       37.8210   62.1380   11.4980 N.ar   24  TRP24      -0.2442
     23  CE2       36.4950   62.1950   11.8330 C.ar   24  TRP24       0.0810
     24  CE3       34.4980   63.3320   11.0730 C.ar   24  TRP24       0.0012
     25  CZ2       35.7930   61.5350   12.8460 C.ar   24  TRP24       0.0191
     26  CZ3       33.7990   62.6730   12.0790 C.ar   24  TRP24       0.0001
     27  CH2       34.4500   61.7850   12.9520 C.ar   24  TRP24       0.0015
     28  N         34.7960   65.5280    6.6400 N.am   25  ARG25      -0.1963
     29  CA        34.2860   66.4030    5.5870 C.3    25  ARG25       0.1729
     30  C         33.3460   67.4670    6.1580 C.2    25  ARG25       0.2616
     31  O         32.4430   67.1520    6.9300 O.2    25  ARG25      -0.2715
     32  CB        33.5470   65.5520    4.5560 C.3    25  ARG25       0.0348
     33  CG        33.4450   66.1350    3.1630 C.3    25  ARG25       0.0492
     34  CD        32.5100   65.3440    2.2560 C.3    25  ARG25       0.2205
     35  NE        31.1520   65.3290    2.7930 N.pl3  25  ARG25      -0.0865
     36  CZ        30.5740   64.2790    3.3670 C.cat  25  ARG25       0.5346
     37  NH1       31.2230   63.1300    3.4830 N.pl3  25  ARG25       0.1354
     38  NH2       29.3350   64.3790    3.8250 N.pl3  25  ARG25       0.1354
     39  N         33.5740   68.7220    5.7770 N.am   26  HIS26      -0.1960
     40  CA        32.7490   69.8590    6.1980 C.3    26  HIS26       0.1772
     41  C         31.7540   70.2460    5.0930 C.2    26  HIS26       0.2462
     42  O         32.1490   70.3750    3.9290 O.2    26  HIS26      -0.2730
     43  CB        33.6460   71.0510    6.5350 C.3    26  HIS26       0.0785
     44  CG        32.9260   72.1960    7.1780 C.ar   26  HIS26       0.0821
     45  ND1       33.0520   72.4960    8.5180 N.ar   26  HIS26      -0.2267
     46  CD2       32.0780   73.1190    6.6640 C.ar   26  HIS26       0.1154
     47  CE1       32.3110   73.5520    8.8020 C.ar   26  HIS26       0.1986
     48  NE2       31.7100   73.9500    7.6940 N.ar   26  HIS26      -0.2212
     49  N         30.4810   70.4450    5.4510 N.am   27  PRO27      -0.2727
     50  CA        29.4180   70.6970    4.4630 C.3    27  PRO27       0.1402
     51  C         29.6280   71.9240    3.5720 C.2    27  PRO27       0.2269
     52  O         29.1000   71.9500    2.4570 O.2    27  PRO27      -0.2865
     53  CB        28.1710   70.8930    5.3320 C.3    27  PRO27       0.0296
     54  CG        28.4850   70.2110    6.6050 C.3    27  PRO27       0.0237
     55  CD        29.9500   70.4300    6.8270 C.3    27  PRO27       0.0939
     56  N         32.9480   73.6150    3.6470 N.3    29  MET29      -0.1230
     57  CA        34.3920   73.7780    3.4880 C.3    29  MET29       0.1702
     58  C         35.0460   72.6480    2.6930 C.2    29  MET29       0.2593
     59  O         36.2000   72.7690    2.2780 O.2    29  MET29      -0.2718
     60  CB        35.0670   73.9270    4.8530 C.3    29  MET29       0.0401
     61  CG        34.5920   75.1280    5.6540 C.3    29  MET29       0.0596
     62  SD        35.9390   75.9800    6.4770 S.3    29  MET29      -0.1393
     63  CE        36.6150   76.9850    5.0880 C.3    29  MET29       0.0692
     64  N         34.3060   71.5600    2.4830 N.am   30  GLY30      -0.1942
     65  CA        34.7910   70.4280    1.7100 C.3    30  GLY30       0.2014
     66  C         35.4150   69.3460    2.5700 C.2    30  GLY30       0.2640
     67  O         35.0700   69.2080    3.7420 O.2    30  GLY30      -0.2714
     68  N         36.3280   68.5720    1.9870 N.am   31  SER31      -0.1935
     69  CA        37.0210   67.5060    2.7130 C.3    31  SER31       0.2055
     70  C         38.2870   68.0270    3.3690 C.2    31  SER31       0.2642
     71  O         39.0150   68.8240    2.7770 O.2    31  SER31      -0.2714
     72  CB        37.3760   66.3640    1.7740 C.3    31  SER31       0.2130
     73  OG        36.2130   65.7470    1.2660 O.3    31  SER31      -0.2179
     74  N         38.5510   67.5640    4.5870 N.am   32  VAL32      -0.1977
     75  CA        39.7140   68.0110    5.3520 C.3    32  VAL32       0.1596
     76  C         41.0160   67.6360    4.6490 C.2    32  VAL32       0.2287
     77  O         41.9330   68.4530    4.5590 O.2    32  VAL32      -0.2864
     78  CB        39.7020   67.4580    6.7910 C.3    32  VAL32       0.0276
     79  CG1       40.8450   68.0460    7.6070 C.3    32  VAL32       0.0022
     80  CG2       38.3690   67.7520    7.4600 C.3    32  VAL32       0.0022
     81  N         41.4080   69.7540    1.2490 N.3    35  GLY35      -0.1210
     82  CA        41.7650   71.1260    1.5680 C.3    35  GLY35       0.1956
     83  C         43.2190   71.2460    1.9780 C.2    35  GLY35       0.2611
     84  O         43.9220   72.1680    1.5480 O.2    35  GLY35      -0.2717
     85  N         43.6700   70.3020    2.8000 N.am   36  ARG36      -0.1979
     86  CA        45.0410   70.2870    3.2910 C.3    36  ARG36       0.1597
     87  C         46.0270   70.0050    2.1710 C.2    36  ARG36       0.2287
     88  O         47.1380   70.5420    2.1680 O.2    36  ARG36      -0.2864
     89  CB        45.2020   69.2500    4.4100 C.3    36  ARG36       0.0334
     90  CG        46.3960   69.4850    5.3310 C.3    36  ARG36       0.0492
     91  CD        46.1580   70.5220    6.4290 C.3    36  ARG36       0.2205
     92  NE        45.0160   70.1800    7.2720 N.pl3  36  ARG36      -0.0865
     93  CZ        45.1020   69.5420    8.4350 C.cat  36  ARG36       0.5346
     94  NH1       46.2780   69.1680    8.9160 N.pl3  36  ARG36       0.1354
     95  NH2       44.0010   69.2720    9.1230 N.pl3  36  ARG36       0.1354
     96  N         46.4200   73.1830   -0.0020 N.3    39  GLU39      -0.1245
     97  CA        47.3000   74.0840    0.7380 C.3    39  GLU39       0.1567
     98  C         48.7670   73.7090    0.5510 C.2    39  GLU39       0.2260
     99  O         49.5840   74.5510    0.1830 O.2    39  GLU39      -0.2867
    100  CB        46.9540   74.0550    2.2230 C.3    39  GLU39       0.0388
    101  CG        46.1540   75.2510    2.7090 C.3    39  GLU39       0.1160
    102  CD        45.0360   74.8520    3.6590 C.2    39  GLU39       0.3649
    103  OE1       43.8560   75.0850    3.3160 O.co2  39  GLU39      -0.2457
    104  OE2       45.3310   74.3030    4.7460 O.co2  39  GLU39      -0.2457
    105  N         38.3090   65.3480   15.2470 N.3    67  ARG67      -0.1245
    106  CA        38.1450   64.6340   13.9830 C.3    67  ARG67       0.1563
    107  C         39.5240   64.2710   13.4200 C.2    67  ARG67       0.2260
    108  O         40.0800   64.9900   12.5870 O.2    67  ARG67      -0.2867
    109  CB        37.3470   65.4820   12.9810 C.3    67  ARG67       0.0307
    110  CG        36.1060   66.1700   13.5550 C.3    67  ARG67       0.0489
    111  CD        36.2360   67.6870   13.7210 C.3    67  ARG67       0.2205
    112  NE        37.5740   68.1840   13.3790 N.pl3  67  ARG67      -0.0865
    113  CZ        37.8970   69.4670   13.2230 C.cat  67  ARG67       0.5346
    114  NH1       36.9850   70.4210   13.3790 N.pl3  67  ARG67       0.1354
    115  NH2       39.1440   69.8000   12.9110 N.pl3  67  ARG67       0.1354
@<TRIPOS>BOND
     1    96    97    1
     2    99    98    2
     3    98    97    1
     4    97   100    1
     5    81    82    1
     6    73    72    1
     7    84    83    2
     8    82    83    1
     9    65    64    1
    10    65    66    1
    11    72    69    1
    12    83    85   am
    13    68    66   am
    14    68    69    1
    15    88    87    2
    16    87    86    1
    17   100   101    1
    18    34    35    1
    19    34    33    1
    20    59    58    2
    21    52    51    2
    22    64    58   am
    23    66    67    2
    24    58    57    1
    25   101   102    1
    26    69    70    1
    27    71    70    2
    28    35    36    2
    29    85    86    1
    30    33    32    1
    31    86    89    1
    32   103   102   ar
    33    36    37    1
    34    36    38    1
    35    70    74   am
    36    57    56    1
    37    57    60    1
    38    51    50    1
    39   102   104   ar
    40    42    41    2
    41    89    90    1
    42    50    53    1
    43    50    49    1
    44    32    29    1
    45    77    76    2
    46    74    75    1
    47    76    75    1
    48    60    61    1
    49    13    12    1
    50    63    62    1
    51    41    49   am
    52    41    40    1
    53    12     9    1
    54    90    91    1
    55    53    54    1
    56    75    78    1
    57    49    55    1
    58    29    30    1
    59    29    28    1
    60    61    62    1
    61    17    16    2
    62    39    30   am
    63    39    40    1
    64    30    31    2
    65    40    43    1
    66    11    10    2
    67    91    92    1
    68    43    44    1
    69    16    28   am
    70    16    15    1
    71     9    10    1
    72     9     8    1
    73    54    55    1
    74    46    44   ar
    75    46    48   ar
    76    10    14   am
    77    78    80    1
    78    78    79    1
    79     8     3   am
    80    44    45   ar
    81    14    15    1
    82    92    93    2
    83    15    18    1
    84    48    47   ar
    85     3     2    1
    86     3     4    2
    87     2     1    1
    88     2     5    1
    89    93    94    1
    90    93    95    1
    91    45    47   ar
    92    18    19    1
    93     5     6    1
    94     5     7    1
    95    19    20   ar
    96    19    21   ar
    97    20    22   ar
    98    21    24   ar
    99    21    23   ar
   100    24    26   ar
   101    22    23   ar
   102    23    25   ar
   103    26    27   ar
   104   108   107    2
   105    25    27   ar
   106   115   113    1
   107   109   110    1
   108   109   106    1
   109   113   112    2
   110   113   114    1
   111   112   111    1
   112   107   106    1
   113   110   111    1
   114   106   105    1
