@<TRIPOS>MOLECULE
tmp/1rwxB00.pdb
 123 122 0 0 0
SMALL
GASTEIGER

@<TRIPOS>ATOM
      1  N         38.0420   56.6430    9.0420 N.3    22  VAL22      -0.1231
      2  CA        37.2710   57.6760    8.3500 C.3    22  VAL22       0.1692
      3  C         38.1370   58.8330    7.8500 C.2    22  VAL22       0.2593
      4  O         39.2450   59.0600    8.3420 O.2    22  VAL22      -0.2718
      5  CB        36.1210   58.2470    9.2410 C.3    22  VAL22       0.0266
      6  CG1       35.1460   57.1510    9.6460 C.3    22  VAL22       0.0020
      7  CG2       36.6720   58.9670   10.4760 C.3    22  VAL22       0.0020
      8  N         37.6130   59.5530    6.8620 N.am   23  SER23      -0.1938
      9  CA        38.1940   60.8060    6.4020 C.3    23  SER23       0.2055
     10  C         37.1370   61.8970    6.5330 C.2    23  SER23       0.2643
     11  O         35.9610   61.6630    6.2520 O.2    23  SER23      -0.2714
     12  CB        38.6640   60.6810    4.9560 C.3    23  SER23       0.2130
     13  OG        39.8230   59.8700    4.8780 O.3    23  SER23      -0.2179
     14  N         37.5580   63.0840    6.9570 N.am   24  TRP24      -0.1959
     15  CA        36.6170   64.1490    7.3070 C.3    24  TRP24       0.1771
     16  C         36.3320   65.1450    6.1810 C.2    24  TRP24       0.2623
     17  O         37.1580   65.3450    5.2870 O.2    24  TRP24      -0.2715
     18  CB        37.0800   64.8690    8.5740 C.3    24  TRP24       0.0590
     19  CG        36.9030   64.0290    9.8020 C.ar   24  TRP24       0.0006
     20  CD1       37.7800   63.1030   10.2950 C.ar   24  TRP24       0.0946
     21  CD2       35.7690   64.0110   10.6780 C.ar   24  TRP24       0.0152
     22  NE1       37.2700   62.5240   11.4320 N.ar   24  TRP24      -0.2442
     23  CE2       36.0340   63.0580   11.6890 C.ar   24  TRP24       0.0810
     24  CE3       34.5520   64.7080   10.7170 C.ar   24  TRP24       0.0012
     25  CZ2       35.1330   62.7880   12.7260 C.ar   24  TRP24       0.0191
     26  CZ3       33.6540   64.4370   11.7490 C.ar   24  TRP24       0.0001
     27  CH2       33.9520   63.4850   12.7380 C.ar   24  TRP24       0.0015
     28  N         35.1470   65.7520    6.2430 N.am   25  ARG25      -0.1918
     29  CA        34.6770   66.7190    5.2510 C.3    25  ARG25       0.1945
     30  C         33.6900   67.7010    5.8960 C.2    25  ARG25       0.2659
     31  O         32.8320   67.2970    6.6840 O.2    25  ARG25      -0.2711
     32  CB        34.0270   65.9870    4.0680 C.2    25  ARG25       0.0033
     33  CG        33.4170   66.8890    2.9850 C.2    25  ARG25       0.0179
     34  CD        32.5810   66.1570    1.9250 C.3    25  ARG25       0.2464
     35  NE        31.9530   64.9320    2.4250 N.pl3  25  ARG25      -0.0815
     36  CZ        30.8380   64.8880    3.1520 C.cat  25  ARG25       0.5349
     37  NH1       30.1980   66.0040    3.4820 N.pl3  25  ARG25       0.1354
     38  NH2       30.3640   63.7170    3.5560 N.pl3  25  ARG25       0.1354
     39  N         33.8290   68.9840    5.5600 N.am   26  HIS26      -0.1957
     40  CA        32.9560   70.0450    6.0680 C.3    26  HIS26       0.1772
     41  C         31.9430   70.4740    4.9960 C.2    26  HIS26       0.2462
     42  O         32.3150   70.6450    3.8330 O.2    26  HIS26      -0.2730
     43  CB        33.7980   71.2440    6.5190 C.3    26  HIS26       0.0785
     44  CG        33.0660   72.2020    7.4070 C.ar   26  HIS26       0.0821
     45  ND1       32.4360   73.3310    6.9270 N.ar   26  HIS26      -0.2267
     46  CD2       32.8650   72.2010    8.7470 C.ar   26  HIS26       0.1154
     47  CE1       31.8790   73.9830    7.9320 C.ar   26  HIS26       0.1986
     48  NE2       32.1240   73.3190    9.0470 N.ar   26  HIS26      -0.2212
     49  N         30.6740   70.6480    5.3840 N.am   27  PRO27      -0.2727
     50  CA        29.5950   70.9680    4.4330 C.3    27  PRO27       0.1402
     51  C         29.7840   72.2550    3.6230 C.2    27  PRO27       0.2269
     52  O         29.2130   72.3570    2.5340 O.2    27  PRO27      -0.2865
     53  CB        28.3600   71.0920    5.3350 C.3    27  PRO27       0.0296
     54  CG        28.9060   71.3450    6.6960 C.3    27  PRO27       0.0237
     55  CD        30.1640   70.5400    6.7630 C.3    27  PRO27       0.0939
     56  N         36.6560   69.0200    2.0180 N.3    31  SER31      -0.1202
     57  CA        37.4440   67.9770    2.6780 C.3    31  SER31       0.2020
     58  C         38.7880   68.5090    3.1680 C.2    31  SER31       0.2618
     59  O         39.5130   69.1760    2.4220 O.2    31  SER31      -0.2717
     60  CB        37.6690   66.7910    1.7370 C.3    31  SER31       0.2103
     61  OG        36.4430   66.2730    1.2560 O.3    31  SER31      -0.2182
     62  N         39.1190   68.2000    4.4200 N.am   32  VAL32      -0.1979
     63  CA        40.3500   68.6910    5.0430 C.3    32  VAL32       0.1595
     64  C         41.6240   68.2150    4.3260 C.2    32  VAL32       0.2287
     65  O         42.5660   68.9920    4.1620 O.2    32  VAL32      -0.2864
     66  CB        40.3910   68.3870    6.5750 C.3    32  VAL32       0.0276
     67  CG1       40.4540   66.8900    6.8530 C.3    32  VAL32       0.0022
     68  CG2       41.5430   69.1170    7.2500 C.3    32  VAL32       0.0022
     69  N         44.1440   70.8510    2.5630 N.3    36  ARG36      -0.1245
     70  CA        45.5300   70.7870    3.0240 C.3    36  ARG36       0.1563
     71  C         46.4870   70.4130    1.8940 C.2    36  ARG36       0.2260
     72  O         47.5940   70.9520    1.8120 O.2    36  ARG36      -0.2867
     73  CB        45.6530   69.7850    4.1780 C.3    36  ARG36       0.0307
     74  CG        46.7940   70.0530    5.1520 C.3    36  ARG36       0.0489
     75  CD        46.5180   71.1350    6.2000 C.3    36  ARG36       0.2205
     76  NE        45.3700   70.8400    7.0580 N.pl3  36  ARG36      -0.0865
     77  CZ        45.4340   70.2150    8.2320 C.cat  36  ARG36       0.5346
     78  NH1       46.5920   69.7890    8.7150 N.pl3  36  ARG36       0.1354
     79  NH2       44.3270   70.0090    8.9290 N.pl3  36  ARG36       0.1354
     80  N         49.0180   66.8760    9.9150 N.3    61  PHE61      -0.1241
     81  CA        47.9720   66.1410   10.6230 C.3    61  PHE61       0.1605
     82  C         48.4580   65.5050   11.9320 C.2    61  PHE61       0.2264
     83  O         47.6520   64.9570   12.6850 O.2    61  PHE61      -0.2867
     84  CB        47.3930   65.0500    9.7160 C.3    61  PHE61       0.0534
     85  CG        46.3880   65.5530    8.7170 C.ar   61  PHE61      -0.0203
     86  CD1       45.0490   65.6890    9.0640 C.ar   61  PHE61      -0.0042
     87  CD2       46.7790   65.8750    7.4220 C.ar   61  PHE61      -0.0042
     88  CE1       44.1130   66.1480    8.1370 C.ar   61  PHE61      -0.0003
     89  CE2       45.8530   66.3320    6.4860 C.ar   61  PHE61      -0.0003
     90  CZ        44.5180   66.4690    6.8460 C.ar   61  PHE61      -0.0000
     91  N         43.3040   66.6790   17.0740 N.3    65  ASP65      -0.1239
     92  CA        42.3530   67.4640   17.8580 C.3    65  ASP65       0.1674
     93  C         41.1640   66.5820   18.2530 C.2    65  ASP65       0.2266
     94  O         41.3530   65.4230   18.6330 O.2    65  ASP65      -0.2867
     95  CB        41.9020   68.7080   17.0800 C.3    65  ASP65       0.1410
     96  CG        41.5030   68.3930   15.6480 C.2    65  ASP65       0.3668
     97  OD1       40.2870   68.3200   15.3710 O.co2  65  ASP65      -0.2456
     98  OD2       42.3340   68.2060   14.7340 O.co2  65  ASP65      -0.2456
     99  N         38.7230   65.6710   16.1200 N.3    67  ARG67      -0.1231
    100  CA        38.6660   64.7380   14.9970 C.3    67  ARG67       0.1694
    101  C         40.0590   64.5650   14.3980 C.2    67  ARG67       0.2592
    102  O         40.7950   65.5400   14.2330 O.2    67  ARG67      -0.2718
    103  CB        37.6800   65.2150   13.9230 C.3    67  ARG67       0.0321
    104  CG        37.3180   66.6970   13.9770 C.3    67  ARG67       0.0489
    105  CD        35.8240   66.9710   13.8870 C.3    67  ARG67       0.2205
    106  NE        35.4430   68.1920   14.5970 N.pl3  67  ARG67      -0.0865
    107  CZ        34.2000   68.5060   14.9500 C.cat  67  ARG67       0.5346
    108  NH1       33.1890   67.6920   14.6660 N.pl3  67  ARG67       0.1354
    109  NH2       33.9650   69.6430   15.5920 N.pl3  67  ARG67       0.1354
    110  N         40.4120   63.3230   14.0730 N.am   68  ALA68      -0.1966
    111  CA        41.7460   63.0100   13.5620 C.3    68  ALA68       0.1728
    112  C         41.7290   62.0970   12.3390 C.2    68  ALA68       0.2616
    113  O         40.8220   61.2810   12.1660 O.2    68  ALA68      -0.2715
    114  CB        42.6070   62.4060   14.6590 C.3    68  ALA68       0.0334
    115  N         42.7400   62.2680   11.4910 N.am   69  GLN69      -0.1977
    116  CA        43.0000   61.3790   10.3620 C.3    69  GLN69       0.1601
    117  C         44.4680   61.4690    9.9590 C.2    69  GLN69       0.2287
    118  O         45.1310   62.4820   10.2060 O.2    69  GLN69      -0.2864
    119  CB        42.0770   61.6810    9.1710 C.3    69  GLN69       0.0394
    120  CG        42.3930   62.9640    8.4130 C.3    69  GLN69       0.0908
    121  CD        41.3100   63.3240    7.4180 C.2    69  GLN69       0.2608
    122  OE1       40.2210   63.7480    7.8070 O.2    69  GLN69      -0.2717
    123  NE2       41.5990   63.1500    6.1330 N.am   69  GLN69      -0.0878
@<TRIPOS>BOND
     1    61    60    1
     2    60    57    1
     3    72    71    2
     4    71    70    1
     5    34    35    1
     6    34    33    1
     7    56    57    1
     8    59    58    2
     9    35    36    2
    10    52    51    2
    11    69    70    1
    12    57    58    1
    13    33    32    2
    14    70    73    1
    15    36    37    1
    16    36    38    1
    17    58    62   am
    18    51    50    1
    19    42    41    2
    20    32    29    1
    21    65    64    2
    22    73    74    1
    23    64    63    1
    24    62    63    1
    25    50    53    1
    26    50    49    1
    27    13    12    1
    28    12     9    1
    29    41    49   am
    30    41    40    1
    31    63    66    1
    32    74    75    1
    33    29    30    1
    34    29    28    1
    35    17    16    2
    36    53    54    1
    37    49    55    1
    38    39    30   am
    39    39    40    1
    40    30    31    2
    41    40    43    1
    42   123   121   am
    43    16    28   am
    44    16    15    1
    45    75    76    1
    46    11    10    2
    47     9    10    1
    48     9     8    1
    49    89    90   ar
    50    89    87   ar
    51    43    44    1
    52    10    14   am
    53    66    67    1
    54    66    68    1
    55    54    55    1
    56    90    88   ar
    57     8     3   am
    58    45    44   ar
    59    45    47   ar
    60    14    15    1
    61    76    77    2
    62    15    18    1
    63    44    46   ar
    64   121   122    2
    65   121   120    1
    66    87    85   ar
    67     3     4    2
    68     3     2    1
    69    47    48   ar
    70    88    86   ar
    71    77    78    1
    72    77    79    1
    73     2     1    1
    74     2     5    1
    75   120   119    1
    76    18    19    1
    77    85    86   ar
    78    85    84    1
    79    46    48   ar
    80   119   116    1
    81     5     6    1
    82     5     7    1
    83    84    81    1
    84    19    20   ar
    85    19    21   ar
    86    80    81    1
    87   117   118    2
    88   117   116    1
    89    20    22   ar
    90   116   115    1
    91    81    82    1
    92    21    24   ar
    93    21    23   ar
    94    24    26   ar
    95    22    23   ar
    96   115   112   am
    97    23    25   ar
    98    26    27   ar
    99    82    83    2
   100   113   112    2
   101   112   111    1
   102    25    27   ar
   103   111   110    1
   104   111   114    1
   105   105   104    1
   106   105   106    1
   107   103   104    1
   108   103   100    1
   109   110   101   am
   110   102   101    2
   111   101   100    1
   112   106   107    2
   113   108   107    1
   114    98    96   ar
   115   107   109    1
   116   100    99    1
   117    97    96   ar
   118    96    95    1
   119    91    92    1
   120    95    92    1
   121    92    93    1
   122    93    94    2
