@<TRIPOS>MOLECULE
tmp/1rx0B00.pdb
 191 184 0 0 0
SMALL
GASTEIGER

@<TRIPOS>ATOM
      1  N         26.4140  -65.6380   72.1590 N.3    94  ILE94      -0.1245
      2  CA        27.6350  -65.2940   72.8900 C.3    94  ILE94       0.1561
      3  C         27.8550  -66.3230   73.9990 C.2    94  ILE94       0.2260
      4  O         28.9640  -66.8190   74.2060 O.2    94  ILE94      -0.2867
      5  CB        27.5450  -63.8870   73.5170 C.3    94  ILE94       0.0252
      6  CG1       27.4970  -62.8310   72.4060 C.3    94  ILE94       0.0019
      7  CG2       28.7420  -63.6410   74.4290 C.3    94  ILE94       0.0019
      8  CD1       27.2380  -61.4160   72.9060 C.3    94  ILE94       0.0001
      9  N         31.6370  -63.2660   77.6160 N.3   127  TYR127     -0.1241
     10  CA        32.9480  -63.2750   76.9730 C.3   127  TYR127      0.1605
     11  C         33.6110  -61.9250   77.2240 C.2   127  TYR127      0.2264
     12  O         33.0630  -60.8810   76.8630 O.2   127  TYR127     -0.2867
     13  CB        32.7900  -63.5050   75.4730 C.3   127  TYR127      0.0534
     14  CG        34.1090  -63.5960   74.7410 C.ar  127  TYR127     -0.0201
     15  CD1       35.0680  -64.5320   75.1200 C.ar  127  TYR127     -0.0009
     16  CD2       34.3900  -62.7620   73.6590 C.ar  127  TYR127     -0.0009
     17  CE1       36.2810  -64.6430   74.4350 C.ar  127  TYR127      0.0417
     18  CE2       35.5970  -62.8650   72.9670 C.ar  127  TYR127      0.0417
     19  CZ        36.5360  -63.8110   73.3610 C.ar  127  TYR127      0.1957
     20  OH        37.7230  -63.9430   72.6730 O.3   127  TYR127     -0.2866
     21  N         36.7290  -59.7120   76.3450 N.3   129  LEU129     -0.1231
     22  CA        37.9090  -59.4380   75.5340 C.3   129  LEU129      0.1693
     23  C         38.2060  -57.9460   75.4430 C.2   129  LEU129      0.2593
     24  O         39.3020  -57.4970   75.7740 O.2   129  LEU129     -0.2718
     25  CB        37.7160  -60.0110   74.1230 C.3   129  LEU129      0.0284
     26  CG        38.7340  -59.6230   73.0440 C.3   129  LEU129      0.0019
     27  CD1       40.1420  -60.0150   73.4830 C.3   129  LEU129      0.0001
     28  CD2       38.3720  -60.3180   71.7390 C.3   129  LEU129      0.0001
     29  N         37.2150  -57.1810   75.0000 N.am  130  THR130     -0.1939
     30  CA        37.3580  -55.7420   74.8230 C.3   130  THR130      0.2028
     31  C         37.6940  -54.9520   76.0810 C.2   130  THR130      0.2642
     32  O         37.2210  -55.2650   77.1760 O.2   130  THR130     -0.2714
     33  CB        36.0730  -55.1580   74.2110 C.3   130  THR130      0.1808
     34  OG1       35.7570  -55.8870   73.0210 O.3   130  THR130     -0.2208
     35  CG2       36.2520  -53.6800   73.8740 C.3   130  THR130      0.0379
     36  N         38.5230  -53.9260   75.9050 N.am  131  GLU131     -0.1963
     37  CA        38.9190  -53.0390   76.9890 C.3   131  GLU131      0.1718
     38  C         38.8080  -51.6060   76.4810 C.2   131  GLU131      0.2458
     39  O         38.7120  -51.3730   75.2740 O.2   131  GLU131     -0.2730
     40  CB        40.3660  -53.3190   77.4160 C.3   131  GLU131      0.0428
     41  CG        40.6020  -54.7480   77.8640 C.3   131  GLU131      0.1163
     42  CD        41.9680  -54.9530   78.4900 C.2   131  GLU131      0.3649
     43  OE1       42.2460  -56.0860   78.9390 O.co2 131  GLU131     -0.2457
     44  OE2       42.7590  -53.9850   78.5340 O.co2 131  GLU131     -0.2457
     45  N         38.8100  -50.6230   77.3930 N.am  132  PRO132     -0.2727
     46  CA        38.7100  -49.2270   76.9630 C.3   132  PRO132      0.1402
     47  C         39.7660  -48.8690   75.9140 C.2   132  PRO132      0.2269
     48  O         39.4950  -48.1190   74.9770 O.2   132  PRO132     -0.2865
     49  CB        38.9100  -48.4550   78.2640 C.3   132  PRO132      0.0296
     50  CG        38.2890  -49.3680   79.2810 C.3   132  PRO132      0.0237
     51  CD        38.8300  -50.7200   78.8640 C.3   132  PRO132      0.0939
     52  N         39.8390  -52.2590   71.3050 N.3   135  GLY135     -0.1210
     53  CA        38.5720  -52.6600   70.7240 C.3   135  GLY135      0.1956
     54  C         38.8800  -53.4320   69.4580 C.2   135  GLY135      0.2612
     55  O         38.9960  -54.6530   69.4820 O.2   135  GLY135     -0.2717
     56  N         39.0210  -52.7170   68.3480 N.am  136  SER136     -0.1952
     57  CA        39.3520  -53.3570   67.0820 C.3   136  SER136      0.1924
     58  C         40.7460  -53.9770   67.2050 C.2   136  SER136      0.2314
     59  O         41.0090  -55.0420   66.6520 O.2   136  SER136     -0.2863
     60  CB        39.3230  -52.3330   65.9490 C.3   136  SER136      0.2116
     61  OG        38.0020  -51.8670   65.7300 O.3   136  SER136     -0.2180
     62  N         35.4540  -53.9030   78.8620 N.3   159  ALA159     -0.1231
     63  CA        34.3540  -53.0040   78.5310 C.3   159  ALA159      0.1694
     64  C         33.3030  -53.6320   77.6280 C.2   159  ALA159      0.2592
     65  O         33.5930  -54.5690   76.8810 O.2   159  ALA159     -0.2718
     66  CB        34.9080  -51.7340   77.8750 C.3   159  ALA159      0.0304
     67  N         32.0830  -53.1030   77.7140 N.am  160  PHE160     -0.1962
     68  CA        30.9490  -53.5520   76.9020 C.3   160  PHE160      0.1771
     69  C         30.5550  -55.0110   77.0920 C.2   160  PHE160      0.2619
     70  O         29.9260  -55.5890   76.2120 O.2   160  PHE160     -0.2715
     71  CB        31.2380  -53.3820   75.4080 C.3   160  PHE160      0.0574
     72  CG        31.5890  -51.9870   74.9830 C.ar  160  PHE160     -0.0200
     73  CD1       32.9180  -51.6040   74.8490 C.ar  160  PHE160     -0.0042
     74  CD2       30.5900  -51.0810   74.6320 C.ar  160  PHE160     -0.0042
     75  CE1       33.2540  -50.3430   74.3630 C.ar  160  PHE160     -0.0003
     76  CE2       30.9130  -49.8160   74.1450 C.ar  160  PHE160     -0.0003
     77  CZ        32.2440  -49.4450   74.0080 C.ar  160  PHE160     -0.0000
     78  N         30.8820  -55.6110   78.2280 N.am  161  ILE161     -0.1963
     79  CA        30.5820  -57.0270   78.4100 C.3   161  ILE161      0.1727
     80  C         29.1060  -57.4070   78.5160 C.2   161  ILE161      0.2616
     81  O         28.4330  -57.0520   79.4810 O.2   161  ILE161     -0.2715
     82  CB        31.3430  -57.5820   79.6310 C.3   161  ILE161      0.0290
     83  CG1       32.8300  -57.2260   79.5130 C.3   161  ILE161      0.0022
     84  CG2       31.1550  -59.0960   79.7220 C.3   161  ILE161      0.0023
     85  CD1       33.4830  -57.6310   78.1790 C.3   161  ILE161      0.0001
     86  N         28.6180  -58.1390   77.5120 N.am  162  SER162     -0.1950
     87  CA        27.2220  -58.5840   77.4790 C.3   162  SER162      0.1924
     88  C         26.9460  -59.6320   78.5540 C.2   162  SER162      0.2314
     89  O         27.6700  -60.6210   78.6680 O.2   162  SER162     -0.2863
     90  CB        26.8770  -59.1880   76.1110 C.3   162  SER162      0.2116
     91  OG        27.0730  -58.2530   75.0620 O.3   162  SER162     -0.2180
     92  N         21.8770  -48.2650   76.1540 N.3   204  LYS204     -0.1245
     93  CA        22.2320  -48.4150   74.7410 C.3   204  LYS204      0.1561
     94  C         21.0480  -48.2300   73.7940 C.2   204  LYS204      0.2260
     95  O         19.8980  -48.1500   74.2210 O.2   204  LYS204     -0.2867
     96  CB        22.8140  -49.8120   74.4910 C.3   204  LYS204      0.0271
     97  CG        23.7610  -50.3110   75.5620 C.3   204  LYS204      0.0035
     98  CD        24.2960  -51.6970   75.2200 C.3   204  LYS204      0.0206
     99  CE        23.1980  -52.7500   75.1580 C.3   204  LYS204      0.1093
    100  NZ        22.6440  -53.1270   76.4940 N.3   204  LYS204     -0.1314
    101  N         20.1570  -50.4440   71.4500 N.3   206  GLY206     -0.1210
    102  CA        19.4720  -51.7200   71.3310 C.3   206  GLY206      0.1956
    103  C         20.1820  -52.8010   72.1250 C.2   206  GLY206      0.2611
    104  O         21.0140  -52.4870   72.9720 O.2   206  GLY206     -0.2717
    105  N         19.8800  -54.0660   71.8360 N.am  207  TRP207     -0.1976
    106  CA        20.4720  -55.1820   72.5710 C.3   207  TRP207      0.1640
    107  C         20.1800  -54.9350   74.0530 C.2   207  TRP207      0.2290
    108  O         20.9790  -55.2580   74.9300 O.2   207  TRP207     -0.2864
    109  CB        21.9830  -55.2520   72.3240 C.3   207  TRP207      0.0576
    110  CG        22.3660  -56.1140   71.1470 C.ar  207  TRP207      0.0006
    111  CD1       21.6800  -56.2560   69.9710 C.ar  207  TRP207      0.0946
    112  CD2       23.5360  -56.9360   71.0290 C.ar  207  TRP207      0.0152
    113  NE1       22.3530  -57.1180   69.1290 N.ar  207  TRP207     -0.2442
    114  CE2       23.4940  -57.5470   69.7540 C.ar  207  TRP207      0.0810
    115  CE3       24.6180  -57.2140   71.8780 C.ar  207  TRP207      0.0012
    116  CZ2       24.4930  -58.4210   69.3070 C.ar  207  TRP207      0.0191
    117  CZ3       25.6140  -58.0860   71.4320 C.ar  207  TRP207      0.0001
    118  CH2       25.5400  -58.6770   70.1570 C.ar  207  TRP207      0.0015
    119  N         24.7870  -54.6110   79.8430 N.3   212  THR212     -0.1218
    120  CA        26.1230  -54.2780   79.3730 C.3   212  THR212      0.1862
    121  C         26.8420  -53.5560   80.5050 C.2   212  THR212      0.2287
    122  O         26.4380  -52.4700   80.9080 O.2   212  THR212     -0.2866
    123  CB        26.0530  -53.3620   78.1350 C.3   212  THR212      0.1770
    124  OG1       25.3730  -54.0500   77.0770 O.3   212  THR212     -0.2211
    125  CG2       27.4460  -52.9730   77.6710 C.3   212  THR212      0.0375
    126  N         23.9340  -52.7860   65.5240 N.3   362  VAL362     -0.1245
    127  CA        25.1960  -53.0280   66.2070 C.3   362  VAL362      0.1561
    128  C         25.9910  -54.2130   65.6600 C.2   362  VAL362      0.2260
    129  O         27.1930  -54.3160   65.8960 O.2   362  VAL362     -0.2867
    130  CB        24.9820  -53.1810   67.7370 C.3   362  VAL362      0.0252
    131  CG1       24.3880  -54.5340   68.0630 C.3   362  VAL362      0.0019
    132  CG2       26.2970  -52.9530   68.4650 C.3   362  VAL362      0.0019
    133  N         29.1980  -53.6460   63.9040 N.3   365  ILE365     -0.1231
    134  CA        30.3210  -53.2120   64.7260 C.3   365  ILE365      0.1692
    135  C         30.9960  -54.3550   65.4960 C.2   365  ILE365      0.2592
    136  O         32.1930  -54.2920   65.7790 O.2   365  ILE365     -0.2718
    137  CB        29.8410  -52.1350   65.7390 C.3   365  ILE365      0.0266
    138  CG1       29.2550  -50.9410   64.9760 C.3   365  ILE365      0.0019
    139  CG2       30.9910  -51.6940   66.6390 C.3   365  ILE365      0.0020
    140  CD1       28.5380  -49.9250   65.8560 C.3   365  ILE365      0.0001
    141  N         30.2350  -55.4020   65.8050 N.am  366  LEU366     -0.1966
    142  CA        30.7420  -56.5360   66.5890 C.3   366  LEU366      0.1728
    143  C         31.3690  -57.7090   65.8350 C.2   366  LEU366      0.2616
    144  O         31.2230  -57.8260   64.6200 O.2   366  LEU366     -0.2715
    145  CB        29.6230  -57.0560   67.4920 C.3   366  LEU366      0.0311
    146  CG        29.3390  -56.2640   68.7780 C.3   366  LEU366      0.0022
    147  CD1       29.5430  -54.7780   68.5660 C.3   366  LEU366      0.0001
    148  CD2       27.9190  -56.5630   69.2330 C.3   366  LEU366      0.0001
    149  N         32.0600  -58.5740   66.5850 N.am  367  GLU367     -0.1963
    150  CA        32.7430  -59.7520   66.0400 C.3   367  GLU367      0.1733
    151  C         33.7190  -59.3010   64.9660 C.2   367  GLU367      0.2617
    152  O         33.9780  -60.0170   63.9970 O.2   367  GLU367     -0.2715
    153  CB        31.7260  -60.7290   65.4390 C.3   367  GLU367      0.0429
    154  CG        30.7000  -61.2470   66.4300 C.3   367  GLU367      0.1163
    155  CD        31.3010  -62.1700   67.4730 C.2   367  GLU367      0.3649
    156  OE1       30.5800  -62.5340   68.4260 O.co2 367  GLU367     -0.2457
    157  OE2       32.4890  -62.5400   67.3390 O.co2 367  GLU367     -0.2457
    158  N         34.2780  -58.1130   65.1610 N.am  368  GLY368     -0.1940
    159  CA        35.1790  -57.5510   64.1780 C.3   368  GLY368      0.2014
    160  C         34.2990  -56.6500   63.3330 C.2   368  GLY368      0.2639
    161  O         33.4880  -57.1340   62.5430 O.2   368  GLY368     -0.2714
    162  N         34.4380  -55.3420   63.5150 N.am  369  SER369     -0.1949
    163  CA        33.6280  -54.3770   62.7760 C.3   369  SER369      0.1924
    164  C         33.7430  -54.6180   61.2770 C.2   369  SER369      0.2314
    165  O         34.6830  -55.2650   60.8160 O.2   369  SER369     -0.2863
    166  CB        34.0930  -52.9620   63.0920 C.3   369  SER369      0.2116
    167  OG        35.3700  -52.7360   62.5220 O.3   369  SER369     -0.2180
    168  N         34.6490  -52.6310   59.1040 N.3   371  GLU371     -0.1231
    169  CA        35.8570  -51.9980   58.5830 C.3   371  GLU371      0.1699
    170  C         36.9630  -53.0460   58.7320 C.2   371  GLU371      0.2592
    171  O         37.7470  -53.2870   57.8090 O.2   371  GLU371     -0.2718
    172  CB        36.2210  -50.7460   59.3900 C.3   371  GLU371      0.0402
    173  CG        35.3230  -49.5230   59.1530 C.3   371  GLU371      0.1161
    174  CD        33.8840  -49.7370   59.5920 C.2   371  GLU371      0.3649
    175  OE1       33.6680  -50.2550   60.7100 O.co2 371  GLU371     -0.2457
    176  OE2       32.9610  -49.3750   58.8250 O.co2 371  GLU371     -0.2457
    177  N         37.0100  -53.6830   59.8970 N.am  372  VAL372     -0.1980
    178  CA        38.0100  -54.7150   60.1420 C.3   372  VAL372      0.1595
    179  C         37.8120  -55.8870   59.1770 C.2   372  VAL372      0.2287
    180  O         38.7850  -56.4810   58.7130 O.2   372  VAL372     -0.2864
    181  CB        37.9510  -55.2180   61.5990 C.3   372  VAL372      0.0276
    182  CG1       38.8310  -56.4510   61.7710 C.3   372  VAL372      0.0022
    183  CG2       38.4360  -54.1140   62.5370 C.3   372  VAL372      0.0022
    184  N         39.5990  -55.1410   56.1370 N.3   375  ILE375     -0.1245
    185  CA        41.0470  -55.2290   56.2980 C.3   375  ILE375      0.1561
    186  C         41.4610  -56.6890   56.1020 C.2   375  ILE375      0.2260
    187  O         42.3920  -56.9930   55.3530 O.2   375  ILE375     -0.2867
    188  CB        41.5020  -54.8020   57.7140 C.3   375  ILE375      0.0252
    189  CG1       41.2410  -53.3130   57.9300 C.3   375  ILE375      0.0019
    190  CG2       42.9860  -55.1170   57.8980 C.3   375  ILE375      0.0019
    191  CD1       41.5730  -52.8390   59.3360 C.3   375  ILE375      0.0001
@<TRIPOS>BOND
     1   187   186    2
     2   186   185    1
     3   184   185    1
     4   185   188    1
     5   188   190    1
     6   188   189    1
     7   171   170    2
     8   189   191    1
     9   169   170    1
    10   169   168    1
    11   169   172    1
    12   180   179    2
    13   170   177   am
    14   176   174   ar
    15   173   172    1
    16   173   174    1
    17   179   178    1
    18   174   175   ar
    19   177   178    1
    20   178   181    1
    21   165   164    2
    22   164   163    1
    23   181   182    1
    24   181   183    1
    25   167   166    1
    26   161   160    2
    27   163   166    1
    28   163   162    1
    29   160   162   am
    30   160   159    1
    31   133   134    1
    32   152   151    2
    33   159   158    1
    34   144   143    2
    35   134   135    1
    36   134   137    1
    37   151   158   am
    38   151   150    1
    39   138   137    1
    40   138   140    1
    41   153   150    1
    42   153   154    1
    43   135   136    2
    44   135   141   am
    45   126   127    1
    46   128   129    2
    47   128   127    1
    48    61    60    1
    49   137   139    1
    50   141   142    1
    51   143   149   am
    52   143   142    1
    53    60    57    1
    54   150   149    1
    55   127   130    1
    56   154   155    1
    57   142   145    1
    58    59    58    2
    59    57    58    1
    60    57    56    1
    61   157   155   ar
    62   155   156   ar
    63   145   146    1
    64   130   131    1
    65   130   132    1
    66    56    54   am
    67   147   146    1
    68   146   148    1
    69   113   114   ar
    70   113   111   ar
    71   116   114   ar
    72   116   118   ar
    73    54    55    2
    74    54    53    1
    75   114   112   ar
    76   111   110   ar
    77   118   117   ar
    78    53    52    1
    79   112   110   ar
    80   112   115   ar
    81   110   109    1
    82   102   101    1
    83   102   103    1
    84   117   115   ar
    85    28    26    1
    86   105   103   am
    87   105   106    1
    88   103   104    2
    89     1     2    1
    90   109   106    1
    91     6     8    1
    92     6     5    1
    93   106   107    1
    94    20    19    1
    95     2     5    1
    96     2     3    1
    97    18    19   ar
    98    18    16   ar
    99    34    33    1
   100    26    27    1
   101    26    25    1
   102    19    17   ar
   103     5     7    1
   104    16    14   ar
   105    94    95    2
   106    94    93    1
   107    35    33    1
   108     3     4    2
   109    77    76   ar
   110    77    75   ar
   111   107   108    2
   112    25    22    1
   113    76    74   ar
   114    33    30    1
   115    75    73   ar
   116    17    15   ar
   117    96    93    1
   118    96    97    1
   119    74    72   ar
   120    14    15   ar
   121    14    13    1
   122    93    92    1
   123    30    29    1
   124    30    31    1
   125    73    72   ar
   126    48    47    2
   127    72    71    1
   128    29    23   am
   129    91    90    1
   130    99    98    1
   131    99   100    1
   132    98    97    1
   133    39    38    2
   134    71    68    1
   135    23    22    1
   136    23    24    2
   137    13    10    1
   138    22    21    1
   139    36    31   am
   140    36    37    1
   141    47    46    1
   142    31    32    2
   143    90    87    1
   144    70    69    2
   145    38    37    1
   146    38    45   am
   147    12    11    2
   148    65    64    2
   149    68    69    1
   150    68    67    1
   151    46    45    1
   152    46    49    1
   153    10    11    1
   154    10     9    1
   155    37    40    1
   156   124   123    1
   157    69    78   am
   158    45    51    1
   159    40    41    1
   160    87    86    1
   161    87    88    1
   162    86    80   am
   163    64    67   am
   164    64    63    1
   165   125   123    1
   166    41    42    1
   167    66    63    1
   168   123   120    1
   169    85    83    1
   170    78    79    1
   171    49    50    1
   172    79    80    1
   173    79    82    1
   174    42    44   ar
   175    42    43   ar
   176    80    81    2
   177    63    62    1
   178    88    89    2
   179    51    50    1
   180   120   119    1
   181   120   121    1
   182    83    82    1
   183    82    84    1
   184   121   122    2
