@<TRIPOS>MOLECULE
tmp/1rx0B01.pdb
 144 142 0 0 0
SMALL
GASTEIGER

@<TRIPOS>ATOM
      1  N          2.1420  -55.7350   55.5900 N.3   267  HIS267     -0.1241
      2  CA         1.7220  -54.3560   55.8080 C.3   267  HIS267      0.1621
      3  C          1.3200  -53.6670   54.5030 C.2   267  HIS267      0.2264
      4  O          0.3210  -52.9430   54.4560 O.2   267  HIS267     -0.2867
      5  CB         2.8470  -53.5620   56.4790 C.3   267  HIS267      0.0745
      6  CG         2.4900  -52.1370   56.7630 C.ar  267  HIS267      0.0817
      7  ND1        1.5650  -51.7800   57.7200 N.ar  267  HIS267     -0.2268
      8  CD2        2.9260  -50.9800   56.2100 C.ar  267  HIS267      0.1154
      9  CE1        1.4470  -50.4640   57.7460 C.ar  267  HIS267      0.1986
     10  NE2        2.2620  -49.9540   56.8390 N.ar  267  HIS267     -0.2212
     11  N         -2.4320  -52.1800   54.6520 N.3   271  ARG271     -0.1245
     12  CA        -2.5730  -50.7340   54.8150 C.3   271  ARG271      0.1563
     13  C         -2.9830  -50.0630   53.5090 C.2   271  ARG271      0.2260
     14  O         -2.3830  -50.2970   52.4600 O.2   271  ARG271     -0.2867
     15  CB        -1.2540  -50.1300   55.3160 C.3   271  ARG271      0.0307
     16  CG        -1.3930  -48.8600   56.1750 C.3   271  ARG271      0.0489
     17  CD        -1.9030  -47.6550   55.3920 C.3   271  ARG271      0.2205
     18  NE        -1.6210  -46.3970   56.0870 N.pl3 271  ARG271     -0.0865
     19  CZ        -2.3700  -45.8640   57.0490 C.cat 271  ARG271      0.5346
     20  NH1       -3.4830  -46.4640   57.4570 N.pl3 271  ARG271      0.1354
     21  NH2       -1.9970  -44.7240   57.6120 N.pl3 271  ARG271      0.1354
     22  N         -3.9160  -46.3820   51.4120 N.3   273  GLN273     -0.1231
     23  CA        -3.7750  -44.9300   51.3040 C.3   273  GLN273      0.1698
     24  C         -4.1510  -44.6250   49.8620 C.2   273  GLN273      0.2592
     25  O         -3.8530  -45.4100   48.9650 O.2   273  GLN273     -0.2718
     26  CB        -2.3390  -44.4570   51.5730 C.3   273  GLN273      0.0381
     27  CG        -1.9220  -44.4830   53.0390 C.3   273  GLN273      0.0905
     28  CD        -2.7140  -43.5120   53.9090 C.2   273  GLN273      0.2608
     29  OE1       -2.4690  -42.3040   53.9030 O.2   273  GLN273     -0.2717
     30  NE2       -3.6740  -44.0410   54.6570 N.am  273  GLN273     -0.0878
     31  N         -4.8110  -43.4920   49.6410 N.am  274  PHE274     -0.1976
     32  CA        -5.2430  -43.0960   48.3070 C.3   274  PHE274      0.1639
     33  C         -6.2250  -44.1080   47.7100 C.2   274  PHE274      0.2290
     34  O         -6.2970  -44.2780   46.4930 O.2   274  PHE274     -0.2864
     35  CB        -4.0390  -42.9080   47.3730 C.3   274  PHE274      0.0560
     36  CG        -3.0320  -41.9090   47.8770 C.ar  274  PHE274     -0.0200
     37  CD1       -1.9020  -42.3290   48.5750 C.ar  274  PHE274     -0.0042
     38  CD2       -3.2340  -40.5460   47.6910 C.ar  274  PHE274     -0.0042
     39  CE1       -0.9890  -41.4070   49.0820 C.ar  274  PHE274     -0.0003
     40  CE2       -2.3290  -39.6130   48.1940 C.ar  274  PHE274     -0.0003
     41  CZ        -1.2020  -40.0440   48.8930 C.ar  274  PHE274     -0.0000
     42  N         -1.1000  -50.1510   49.9630 N.3   278  LEU278     -0.1245
     43  CA         0.1890  -49.5170   49.6950 C.3   278  LEU278      0.1561
     44  C          0.9290  -50.3250   48.6270 C.2   278  LEU278      0.2260
     45  O          1.7270  -49.7840   47.8550 O.2   278  LEU278     -0.2867
     46  CB         1.0310  -49.4470   50.9780 C.3   278  LEU278      0.0270
     47  CG         0.5900  -48.4340   52.0420 C.3   278  LEU278      0.0019
     48  CD1        1.4800  -48.5500   53.2720 C.3   278  LEU278      0.0001
     49  CD2        0.6570  -47.0290   51.4690 C.3   278  LEU278      0.0001
     50  N          1.5370  -49.3140   44.8810 N.3   281  ASN281     -0.1240
     51  CA         2.5230  -48.3150   44.4800 C.3   281  ASN281      0.1653
     52  C          3.8020  -48.9960   44.0160 C.2   281  ASN281      0.2266
     53  O          4.4750  -49.6650   44.7950 O.2   281  ASN281     -0.2867
     54  CB         2.7900  -47.3760   45.6500 C.3   281  ASN281      0.1155
     55  CG         1.5540  -46.5950   46.0380 C.2   281  ASN281      0.2627
     56  OD1        1.0130  -45.8410   45.2310 O.2   281  ASN281     -0.2716
     57  ND2        1.0840  -46.7860   47.2680 N.am  281  ASN281     -0.0877
     58  N          6.8500  -48.0110   43.3700 N.3   283  TYR283     -0.1227
     59  CA         8.1110  -47.7490   44.0550 C.3   283  TYR283      0.1736
     60  C          8.2460  -48.6600   45.2640 C.2   283  TYR283      0.2595
     61  O          9.3320  -49.1650   45.5560 O.2   283  TYR283     -0.2718
     62  CB         8.1980  -46.2980   44.5160 C.3   283  TYR283      0.0548
     63  CG         9.5470  -45.9530   45.1050 C.ar  283  TYR283     -0.0200
     64  CD1       10.6770  -45.8660   44.2930 C.ar  283  TYR283     -0.0009
     65  CD2        9.6950  -45.7050   46.4720 C.ar  283  TYR283     -0.0009
     66  CE1       11.9220  -45.5360   44.8230 C.ar  283  TYR283      0.0417
     67  CE2       10.9390  -45.3730   47.0120 C.ar  283  TYR283      0.0417
     68  CZ        12.0450  -45.2890   46.1790 C.ar  283  TYR283      0.1957
     69  OH        13.2730  -44.9360   46.6940 O.3   283  TYR283     -0.2866
     70  N          7.1410  -48.8640   45.9750 N.am  284  LEU284     -0.1980
     71  CA         7.1530  -49.7270   47.1470 C.3   284  LEU284      0.1596
     72  C          7.3180  -51.1880   46.7330 C.2   284  LEU284      0.2287
     73  O          7.9840  -51.9620   47.4220 O.2   284  LEU284     -0.2864
     74  CB         5.8700  -49.5340   47.9630 C.3   284  LEU284      0.0297
     75  CG         5.6130  -48.0970   48.4410 C.3   284  LEU284      0.0022
     76  CD1        4.3990  -48.0770   49.3590 C.3   284  LEU284      0.0001
     77  CD2        6.8320  -47.5480   49.1840 C.3   284  LEU284      0.0001
     78  N         10.8600  -47.7950   56.9950 N.3   340  GLN340     -0.1231
     79  CA        10.3440  -46.7380   56.1320 C.3   340  GLN340      0.1698
     80  C          8.9840  -47.1220   55.5590 C.2   340  GLN340      0.2592
     81  O          8.0740  -46.2900   55.4900 O.2   340  GLN340     -0.2718
     82  CB        11.3190  -46.4710   54.9830 C.3   340  GLN340      0.0381
     83  CG        10.9780  -45.2530   54.1250 C.3   340  GLN340      0.0905
     84  CD        11.1570  -43.9400   54.8680 C.2   340  GLN340      0.2608
     85  OE1       11.8720  -43.8730   55.8660 O.2   340  GLN340     -0.2717
     86  NE2       10.5190  -42.8810   54.3690 N.am  340  GLN340     -0.0878
     87  N          8.8540  -48.3840   55.1550 N.am  341  MET341     -0.1965
     88  CA         7.6150  -48.9030   54.5710 C.3   341  MET341      0.1736
     89  C          6.4210  -48.8680   55.5210 C.2   341  MET341      0.2616
     90  O          5.2770  -48.9140   55.0730 O.2   341  MET341     -0.2715
     91  CB         7.8230  -50.3460   54.0970 C.3   341  MET341      0.0427
     92  CG         8.8870  -50.5260   53.0290 C.3   341  MET341      0.0599
     93  SD         8.4080  -49.8510   51.4300 S.3   341  MET341     -0.1393
     94  CE         9.1100  -48.1870   51.5710 C.3   341  MET341      0.0692
     95  N          6.6850  -48.8150   56.8260 N.am  342  HIS342     -0.1959
     96  CA         5.6190  -48.7650   57.8290 C.3   342  HIS342      0.1787
     97  C          5.2210  -47.3240   58.1380 C.2   342  HIS342      0.2621
     98  O          4.2780  -47.0810   58.8840 O.2   342  HIS342     -0.2715
     99  CB         6.0680  -49.4400   59.1290 C.3   342  HIS342      0.0785
    100  CG         6.0910  -50.9340   59.0610 C.ar  342  HIS342      0.0821
    101  ND1        5.2010  -51.7250   59.7560 N.ar  342  HIS342     -0.2267
    102  CD2        6.8960  -51.7830   58.3810 C.ar  342  HIS342      0.1154
    103  CE1        5.4580  -52.9970   59.5080 C.ar  342  HIS342      0.1986
    104  NE2        6.4820  -53.0600   58.6760 N.ar  342  HIS342     -0.2212
    105  N          5.9450  -46.3700   57.5670 N.am  343  GLY343     -0.1940
    106  CA         5.6410  -44.9780   57.8310 C.3   343  GLY343      0.2014
    107  C          5.9070  -44.6200   59.2840 C.2   343  GLY343      0.2639
    108  O          6.8170  -45.1610   59.9130 O.2   343  GLY343     -0.2714
    109  N          5.1030  -43.7120   59.8250 N.am  344  GLY344     -0.1939
    110  CA         5.2840  -43.2970   61.2020 C.3   344  GLY344      0.2014
    111  C          5.1980  -44.4540   62.1800 C.2   344  GLY344      0.2638
    112  O          5.8560  -44.4490   63.2160 O.2   344  GLY344     -0.2714
    113  N          4.3880  -45.4520   61.8460 N.am  345  TYR345     -0.1973
    114  CA         4.2190  -46.6150   62.7090 C.3   345  TYR345      0.1639
    115  C          5.5240  -47.3660   62.9390 C.2   345  TYR345      0.2290
    116  O          5.7160  -47.9730   63.9910 O.2   345  TYR345     -0.2864
    117  CB         3.1700  -47.5600   62.1170 C.3   345  TYR345      0.0560
    118  CG         1.8230  -46.8920   61.9740 C.ar  345  TYR345     -0.0198
    119  CD1        1.5030  -46.1650   60.8270 C.ar  345  TYR345     -0.0009
    120  CD2        0.9030  -46.9020   63.0260 C.ar  345  TYR345     -0.0009
    121  CE1        0.3010  -45.4560   60.7330 C.ar  345  TYR345      0.0417
    122  CE2       -0.2990  -46.1960   62.9390 C.ar  345  TYR345      0.0417
    123  CZ        -0.5900  -45.4750   61.7920 C.ar  345  TYR345      0.1957
    124  OH        -1.7620  -44.7510   61.7120 O.3   345  TYR345     -0.2866
    125  N          8.2770  -46.1620   63.5450 N.3   347  TYR347     -0.1227
    126  CA         9.0730  -45.4410   64.5340 C.3   347  TYR347      0.1736
    127  C          8.5580  -45.7040   65.9500 C.2   347  TYR347      0.2595
    128  O          9.1980  -45.3120   66.9260 O.2   347  TYR347     -0.2718
    129  CB         9.0050  -43.9410   64.2320 C.3   347  TYR347      0.0548
    130  CG        10.1120  -43.0920   64.8220 C.ar  347  TYR347     -0.0200
    131  CD1       11.4310  -43.2230   64.3850 C.ar  347  TYR347     -0.0009
    132  CD2        9.8260  -42.1000   65.7600 C.ar  347  TYR347     -0.0009
    133  CE1       12.4400  -42.3750   64.8620 C.ar  347  TYR347      0.0417
    134  CE2       10.8200  -41.2520   66.2390 C.ar  347  TYR347      0.0417
    135  CZ        12.1190  -41.3900   65.7870 C.ar  347  TYR347      0.1957
    136  OH        13.0890  -40.5160   66.2350 O.3   347  TYR347     -0.2866
    137  N          7.4080  -46.3680   66.0590 N.am  348  LEU348     -0.1980
    138  CA         6.8060  -46.6660   67.3650 C.3   348  LEU348      0.1596
    139  C          7.2390  -48.0180   67.9240 C.2   348  LEU348      0.2287
    140  O          7.2990  -49.0060   67.1960 O.2   348  LEU348     -0.2864
    141  CB         5.2800  -46.6430   67.2660 C.3   348  LEU348      0.0297
    142  CG         4.6340  -45.3690   66.7100 C.3   348  LEU348      0.0022
    143  CD1        3.1140  -45.5310   66.7220 C.3   348  LEU348      0.0001
    144  CD2        5.0540  -44.1650   67.5390 C.3   348  LEU348      0.0001
@<TRIPOS>BOND
     1    58    59    1
     2    52    51    1
     3    52    53    2
     4    59    62    1
     5    59    60    1
     6    64    66   ar
     7    64    63   ar
     8    51    50    1
     9    51    54    1
    10    62    63    1
    11    66    68   ar
    12    63    65   ar
    13    56    55    2
    14    60    61    2
    15    60    70   am
    16    54    55    1
    17    70    71    1
    18    55    57   am
    19    68    69    1
    20    68    67   ar
    21    65    67   ar
    22    34    33    2
    23    72    71    1
    24    72    73    2
    25    71    74    1
    26    35    36    1
    27    35    32    1
    28    38    36   ar
    29    38    40   ar
    30    33    32    1
    31    45    44    2
    32    36    37   ar
    33    74    75    1
    34    40    41   ar
    35    32    31    1
    36    75    77    1
    37    75    76    1
    38    37    39   ar
    39    44    43    1
    40    41    39   ar
    41    25    24    2
    42    31    24   am
    43    43    42    1
    44    43    46    1
    45    24    23    1
    46    46    47    1
    47    23    22    1
    48    23    26    1
    49    93    94    1
    50    93    92    1
    51    49    47    1
    52    26    27    1
    53    47    48    1
    54    14    13    2
    55    92    91    1
    56    27    28    1
    57    13    12    1
    58    29    28    2
    59    28    30   am
    60    91    88    1
    61    83    84    1
    62    83    82    1
    63    86    84   am
    64     4     3    2
    65     3     2    1
    66    88    87    1
    67    88    89    1
    68    11    12    1
    69    12    15    1
    70    84    85    2
    71    82    79    1
    72    90    89    2
    73    87    80   am
    74    15    16    1
    75    17    18    1
    76    17    16    1
    77    81    80    2
    78    89    95   am
    79    80    79    1
    80     1     2    1
    81     2     5    1
    82    18    19    2
    83    79    78    1
    84     8     6   ar
    85     8    10   ar
    86     5     6    1
    87     6     7   ar
    88    95    96    1
    89    10     9   ar
    90    19    20    1
    91    19    21    1
    92   105   106    1
    93   105    97   am
    94     7     9   ar
    95    96    97    1
    96    96    99    1
    97   106   107    1
    98    97    98    2
    99   102   104   ar
   100   102   100   ar
   101   104   103   ar
   102   100    99    1
   103   100   101   ar
   104   107   109   am
   105   107   108    2
   106   103   101   ar
   107   109   110    1
   108   121   119   ar
   109   121   123   ar
   110   119   118   ar
   111   110   111    1
   112   124   123    1
   113   123   122   ar
   114   113   111   am
   115   113   114    1
   116   118   117    1
   117   118   120   ar
   118   117   114    1
   119   111   112    2
   120   114   115    1
   121   115   116    2
   122   122   120   ar
   123   125   126    1
   124   129   126    1
   125   129   130    1
   126   131   130   ar
   127   131   133   ar
   128   126   127    1
   129   130   132   ar
   130   133   135   ar
   131   132   134   ar
   132   135   136    1
   133   135   134   ar
   134   127   137   am
   135   127   128    2
   136   137   138    1
   137   142   143    1
   138   142   141    1
   139   142   144    1
   140   140   139    2
   141   141   138    1
   142   138   139    1
