@<TRIPOS>MOLECULE
tmp/1rx5A00.pdb
 187 182 0 0 0
SMALL
GASTEIGER

@<TRIPOS>ATOM
      1  N         24.4160   41.9940   14.2570 N.3     5  ILE5       -0.1231
      2  CA        25.4840   41.0140   13.9670 C.3     5  ILE5        0.1692
      3  C         26.8220   41.5590   14.2530 C.2     5  ILE5        0.2592
      4  O         27.1710   42.6370   13.7590 O.2     5  ILE5       -0.2718
      5  CB        25.5530   40.5100   12.5350 C.3     5  ILE5        0.0266
      6  CG1       26.6860   39.5290   12.3890 C.3     5  ILE5        0.0019
      7  CG2       25.7450   41.6820   11.5420 C.3     5  ILE5        0.0020
      8  CD1       26.5680   38.7700   11.0570 C.3     5  ILE5        0.0001
      9  N         27.5550   40.7540   15.0260 N.am    6  ALA6       -0.1966
     10  CA        28.8660   41.2130   15.3660 C.3     6  ALA6        0.1728
     11  C         29.8660   40.1810   15.8120 C.2     6  ALA6        0.2616
     12  O         29.5210   39.0160   16.0260 O.2     6  ALA6       -0.2715
     13  CB        28.5840   42.1020   16.5340 C.3     6  ALA6        0.0334
     14  N         31.1100   40.6670   15.9150 N.am    7  ALA7       -0.1977
     15  CA        32.3150   39.9160   16.3420 C.3     7  ALA7        0.1597
     16  C         32.8450   40.5500   17.6490 C.2     7  ALA7        0.2287
     17  O         33.1930   41.7620   17.7140 O.2     7  ALA7       -0.2864
     18  CB        33.4000   39.9320   15.2770 C.3     7  ALA7        0.0319
     19  N         35.7530   46.3780   17.4860 N.3    15  GLY15      -0.1210
     20  CA        36.5740   47.4210   16.8390 C.3    15  GLY15       0.1956
     21  C         36.7450   47.2630   15.3290 C.2    15  GLY15       0.2612
     22  O         36.3610   46.2540   14.7150 O.2    15  GLY15      -0.2717
     23  N         37.3400   48.2700   14.7180 N.am   16  MET16      -0.1965
     24  CA        37.5050   48.1460   13.2940 C.3    16  MET16       0.1736
     25  C         38.4550   47.1170   12.8090 C.2    16  MET16       0.2616
     26  O         39.3180   46.6490   13.5580 O.2    16  MET16      -0.2715
     27  CB        37.5570   49.4370   12.4870 C.3    16  MET16       0.0427
     28  CG        36.1040   49.7420   12.2120 C.3    16  MET16       0.0599
     29  SD        35.2570   48.1840   11.7560 S.3    16  MET16      -0.1393
     30  CE        34.0750   48.9490   10.6060 C.3    16  MET16       0.0692
     31  N         38.2410   46.8090   11.5330 N.am   17  GLU17      -0.1977
     32  CA        39.0210   45.8600   10.7840 C.3    17  GLU17       0.1602
     33  C         40.5280   46.0380   11.1040 C.2    17  GLU17       0.2287
     34  O         41.2270   45.1400   11.6050 O.2    17  GLU17      -0.2864
     35  CB        38.7570   46.1160    9.2640 C.3    17  GLU17       0.0415
     36  CG        38.9510   47.6040    8.8230 C.3    17  GLU17       0.1163
     37  CD        39.8690   47.8520    7.6110 C.2    17  GLU17       0.3649
     38  OE1       40.5070   46.7780    7.2030 O.co2  17  GLU17      -0.2457
     39  OE2       40.0600   48.9550    7.1030 O.co2  17  GLU17      -0.2457
     40  N         42.8800   40.2160   14.9600 N.3    22  TRP22      -0.1241
     41  CA        42.6910   38.8530   14.4990 C.3    22  TRP22       0.1605
     42  C         42.5820   38.7200   12.9840 C.2    22  TRP22       0.2264
     43  O         42.5860   39.6500   12.1890 O.2    22  TRP22      -0.2867
     44  CB        41.5160   38.2090   15.2140 C.3    22  TRP22       0.0550
     45  CG        40.2380   38.8990   14.8460 C.ar   22  TRP22       0.0003
     46  CD1       39.6560   38.8640   13.6240 C.ar   22  TRP22       0.0946
     47  CD2       39.4010   39.7160   15.6680 C.ar   22  TRP22       0.0152
     48  NE1       38.5080   39.5910   13.6350 N.ar   22  TRP22      -0.2442
     49  CE2       38.3230   40.1170   14.8750 C.ar   22  TRP22       0.0810
     50  CE3       39.4520   40.1250   16.9920 C.ar   22  TRP22       0.0012
     51  CZ2       37.3000   40.9040   15.3670 C.ar   22  TRP22       0.0191
     52  CZ3       38.4450   40.9110   17.4730 C.ar   22  TRP22       0.0001
     53  CH2       37.3770   41.2940   16.6640 C.ar   22  TRP22       0.0015
     54  N         35.0590   34.0670    9.6620 N.3    27  ASP27      -0.1225
     55  CA        34.1320   35.0110   10.2580 C.3    27  ASP27       0.1805
     56  C         33.4530   35.8940    9.1580 C.2    27  ASP27       0.2598
     57  O         32.2450   36.1660    9.1760 O.2    27  ASP27      -0.2718
     58  CB        34.8240   35.9200   11.3100 C.3    27  ASP27       0.1424
     59  CG        33.8810   36.9080   11.9520 C.2    27  ASP27       0.3668
     60  OD1       32.7420   36.6140   12.2690 O.co2  27  ASP27      -0.2456
     61  OD2       34.3360   38.1590   11.9950 O.co2  27  ASP27      -0.2456
     62  N         34.2540   36.3430    8.1620 N.am   28  LEU28      -0.1966
     63  CA        33.7380   37.1770    7.0780 C.3    28  LEU28       0.1728
     64  C         32.7620   36.4660    6.1380 C.2    28  LEU28       0.2616
     65  O         31.8440   37.0650    5.5910 O.2    28  LEU28      -0.2715
     66  CB        34.8900   37.7970    6.3180 C.3    28  LEU28       0.0311
     67  CG        35.6560   38.7700    7.1800 C.3    28  LEU28       0.0022
     68  CD1       36.9820   38.9940    6.4640 C.3    28  LEU28       0.0001
     69  CD2       34.8870   40.0930    7.2830 C.3    28  LEU28       0.0001
     70  N         33.0100   35.1680    5.9650 N.am   29  ALA29      -0.1963
     71  CA        32.2140   34.2970    5.1460 C.3    29  ALA29       0.1728
     72  C         30.8720   34.1930    5.8630 C.2    29  ALA29       0.2616
     73  O         29.7720   34.2690    5.3410 O.2    29  ALA29      -0.2715
     74  CB        32.9060   32.9610    5.1250 C.3    29  ALA29       0.0334
     75  N         30.9950   34.0460    7.1280 N.am   30  TRP30      -0.1960
     76  CA        29.8560   33.9560    7.9470 C.3    30  TRP30       0.1771
     77  C         29.0540   35.2640    7.8990 C.2    30  TRP30       0.2620
     78  O         27.8280   35.2780    7.7710 O.2    30  TRP30      -0.2715
     79  CB        30.3600   33.6680    9.3500 C.3    30  TRP30       0.0590
     80  CG        29.3800   33.9500   10.4160 C.ar   30  TRP30       0.0006
     81  CD1       29.2680   35.0870   11.1950 C.ar   30  TRP30       0.0946
     82  CD2       28.3710   33.0610   10.8420 C.ar   30  TRP30       0.0152
     83  NE1       28.2190   34.9540   12.1150 N.ar   30  TRP30      -0.2442
     84  CE2       27.6460   33.6970   11.9060 C.ar   30  TRP30       0.0810
     85  CE3       28.0230   31.8020   10.4210 C.ar   30  TRP30       0.0012
     86  CZ2       26.5760   33.0500   12.5410 C.ar   30  TRP30       0.0191
     87  CZ3       26.9780   31.1730   11.0410 C.ar   30  TRP30       0.0001
     88  CH2       26.2660   31.8020   12.1050 C.ar   30  TRP30       0.0015
     89  N         29.7390   36.3960    7.9900 N.am   31  PHE31      -0.1960
     90  CA        29.0260   37.6580    7.9540 C.3    31  PHE31       0.1771
     91  C         28.3360   37.9020    6.5850 C.2    31  PHE31       0.2619
     92  O         27.1680   38.3550    6.4170 O.2    31  PHE31      -0.2715
     93  CB        30.0760   38.7010    8.2820 C.3    31  PHE31       0.0574
     94  CG        29.7200   40.0770    7.8500 C.ar   31  PHE31      -0.0200
     95  CD1       29.9200   40.4840    6.5330 C.ar   31  PHE31      -0.0042
     96  CD2       29.1860   40.9970    8.7490 C.ar   31  PHE31      -0.0042
     97  CE1       29.6070   41.7760    6.1120 C.ar   31  PHE31      -0.0003
     98  CE2       28.8480   42.2900    8.3420 C.ar   31  PHE31      -0.0003
     99  CZ        29.0580   42.6810    7.0220 C.ar   31  PHE31      -0.0000
    100  N         29.0900   37.5610    5.5420 N.am   32  LYS32      -0.1977
    101  CA        28.6160   37.7240    4.2240 C.3    32  LYS32       0.1596
    102  C         27.3290   36.9840    3.9810 C.2    32  LYS32       0.2287
    103  O         26.3350   37.5230    3.5080 O.2    32  LYS32      -0.2864
    104  CB        29.6700   37.2230    3.2810 C.3    32  LYS32       0.0298
    105  CG        29.4040   37.6290    1.8520 C.3    32  LYS32       0.0038
    106  CD        30.1510   36.7300    0.8810 C.3    32  LYS32       0.0206
    107  CE        30.2520   37.3490   -0.4880 C.3    32  LYS32       0.1093
    108  NZ        30.3940   38.8050   -0.4230 N.3    32  LYS32      -0.1314
    109  N         31.4100   53.2600   10.9230 N.3    46  THR46      -0.1218
    110  CA        31.6900   51.9730   10.2870 C.3    46  THR46       0.1862
    111  C         31.7540   52.1330    8.7540 C.2    46  THR46       0.2287
    112  O         32.5820   51.5080    8.0870 O.2    46  THR46      -0.2866
    113  CB        30.8120   50.8270   10.8430 C.3    46  THR46       0.1770
    114  OG1       31.0000   50.8050   12.2350 O.3    46  THR46      -0.2211
    115  CG2       31.1790   49.4450   10.2900 C.3    46  THR46       0.0375
    116  N         34.6800   50.8900    6.2700 N.3    50  ILE50      -0.1245
    117  CA        34.5430   49.9990    5.1270 C.3    50  ILE50       0.1561
    118  C         34.9260   50.7160    3.7890 C.2    50  ILE50       0.2260
    119  O         35.5460   50.1630    2.8810 O.2    50  ILE50      -0.2867
    120  CB        33.1370   49.4600    5.1820 C.3    50  ILE50       0.0252
    121  CG1       32.8530   49.1060    6.6060 C.3    50  ILE50       0.0019
    122  CG2       33.0250   48.1680    4.3840 C.3    50  ILE50       0.0019
    123  CD1       31.6730   48.1370    6.6880 C.3    50  ILE50       0.0001
    124  N         33.4810   51.3930    0.9910 N.3    52  ARG52      -0.1245
    125  CA        32.8390   51.1420   -0.2800 C.3    52  ARG52       0.1563
    126  C         31.6190   50.4330    0.1440 C.2    52  ARG52       0.2260
    127  O         31.7150   49.7310    1.1300 O.2    52  ARG52      -0.2867
    128  CB        33.7000   50.2040   -1.1180 C.3    52  ARG52       0.0307
    129  CG        34.0300   48.9190   -0.3390 C.3    52  ARG52       0.0489
    130  CD        32.9690   47.8400   -0.5180 C.3    52  ARG52       0.2205
    131  NE        33.0730   46.5590    0.2090 N.pl3  52  ARG52      -0.0865
    132  CZ        33.4150   45.3680   -0.3320 C.cat  52  ARG52       0.5346
    133  NH1       33.7270   45.2240   -1.6210 N.pl3  52  ARG52       0.1354
    134  NH2       33.4500   44.2800    0.4420 N.pl3  52  ARG52       0.1354
    135  N         28.6690   47.8150    0.5260 N.3    54  LEU54      -0.1231
    136  CA        28.8500   46.4220    0.4920 C.3    54  LEU54       0.1678
    137  C         27.9620   45.9140   -0.5440 C.2    54  LEU54       0.2434
    138  O         26.7620   46.1680   -0.5000 O.2    54  LEU54      -0.2733
    139  CB        28.3190   45.7990    1.7610 C.3    54  LEU54       0.0284
    140  CG        29.2020   45.9600    2.9690 C.3    54  LEU54       0.0019
    141  CD1       28.3590   45.3770    4.0930 C.3    54  LEU54       0.0001
    142  CD2       30.4290   45.0830    2.7770 C.3    54  LEU54       0.0001
    143  N         28.5670   45.1960   -1.4410 N.am   55  PRO55      -0.2729
    144  CA        27.8810   44.5990   -2.5710 C.3    55  PRO55       0.1401
    145  C         26.8130   43.5960   -2.2320 C.2    55  PRO55       0.2269
    146  O         27.0080   42.7570   -1.3820 O.2    55  PRO55      -0.2865
    147  CB        28.9700   43.7210   -3.2170 C.3    55  PRO55       0.0296
    148  CG        30.0230   43.4760   -2.1430 C.3    55  PRO55       0.0237
    149  CD        29.9790   44.7510   -1.3060 C.3    55  PRO55       0.0939
    150  N         23.7790   44.1660   -0.9920 N.3    57  ARG57      -0.1245
    151  CA        22.9400   44.6170    0.0940 C.3    57  ARG57       0.1563
    152  C         22.5390   46.0740    0.0220 C.2    57  ARG57       0.2260
    153  O         23.3130   46.9120   -0.4410 O.2    57  ARG57      -0.2867
    154  CB        23.8140   44.5030    1.3630 C.3    57  ARG57       0.0307
    155  CG        23.9460   43.0940    1.8170 C.3    57  ARG57       0.0489
    156  CD        25.2890   42.7290    2.4400 C.3    57  ARG57       0.2205
    157  NE        26.4250   42.6370    1.4900 N.pl3  57  ARG57      -0.0865
    158  CZ        27.5700   42.0330    1.7660 C.cat  57  ARG57       0.5346
    159  NH1       27.7660   41.4490    2.9410 N.pl3  57  ARG57       0.1354
    160  NH2       28.5520   41.9750    0.8620 N.pl3  57  ARG57       0.1354
    161  N         24.7380   46.2100   11.6080 N.3    94  ILE94      -0.1245
    162  CA        26.1650   45.9740   11.5980 C.3    94  ILE94       0.1561
    163  C         27.0600   46.8700   12.4630 C.2    94  ILE94       0.2260
    164  O         28.2770   46.6850   12.4040 O.2    94  ILE94      -0.2867
    165  CB        26.7790   45.7390   10.2490 C.3    94  ILE94       0.0252
    166  CG1       26.6780   47.0260    9.4600 C.3    94  ILE94       0.0019
    167  CG2       26.0840   44.5670    9.5550 C.3    94  ILE94       0.0019
    168  CD1       27.7060   47.0590    8.3580 C.3    94  ILE94       0.0001
    169  N         24.4790   49.5930   17.6230 N.3   100  TYR100     -0.1241
    170  CA        24.1220   48.3320   18.2130 C.3   100  TYR100      0.1605
    171  C         23.0610   48.5200   19.3070 C.2   100  TYR100      0.2264
    172  O         21.9580   47.9520   19.3030 O.2   100  TYR100     -0.2867
    173  CB        25.4260   47.8370   18.8040 C.3   100  TYR100      0.0534
    174  CG        26.1510   47.0170   17.7580 C.ar  100  TYR100     -0.0201
    175  CD1       25.4130   46.1960   16.9100 C.ar  100  TYR100     -0.0009
    176  CD2       27.5350   47.0100   17.6440 C.ar  100  TYR100     -0.0009
    177  CE1       26.0280   45.3970   15.9440 C.ar  100  TYR100      0.0417
    178  CE2       28.1500   46.2070   16.6880 C.ar  100  TYR100      0.0417
    179  CZ        27.4080   45.4090   15.8260 C.ar  100  TYR100      0.1957
    180  OH        28.0300   44.6420   14.8690 O.3   100  TYR100     -0.2866
    181  N         29.7880   36.2170   16.8430 N.3   113  THR113     -0.1218
    182  CA        31.0490   35.5060   16.6870 C.3   113  THR113      0.1862
    183  C         31.9540   35.8850   17.8790 C.2   113  THR113      0.2287
    184  O         32.4600   37.0080   17.9590 O.2   113  THR113     -0.2866
    185  CB        31.7110   36.0190   15.4070 C.3   113  THR113      0.1770
    186  OG1       30.7260   36.0120   14.3830 O.3   113  THR113     -0.2211
    187  CG2       32.8660   35.0950   15.1150 C.3   113  THR113      0.0375
@<TRIPOS>BOND
     1   147   144    1
     2   147   148    1
     3   144   145    1
     4   144   143    1
     5   145   146    2
     6   148   149    1
     7   133   132    1
     8   143   149    1
     9   143   137   am
    10   128   129    1
    11   128   125    1
    12   150   151    1
    13   137   138    2
    14   137   136    1
    15   130   129    1
    16   130   131    1
    17   107   108    1
    18   107   106    1
    19   153   152    2
    20   132   131    2
    21   132   134    1
    22   125   126    1
    23   125   124    1
    24   152   151    1
    25   151   154    1
    26   126   127    2
    27   136   135    1
    28   136   139    1
    29   160   158    1
    30   106   105    1
    31   154   155    1
    32   157   158    2
    33   157   156    1
    34   139   140    1
    35   158   159    1
    36   155   156    1
    37   105   104    1
    38   142   140    1
    39   119   118    2
    40   140   141    1
    41   104   101    1
    42   103   102    2
    43   118   117    1
    44   102   101    1
    45   101   100    1
    46   122   120    1
    47    74    71    1
    48   117   120    1
    49   117   116    1
    50    71    72    1
    51    71    70    1
    52   120   121    1
    53    73    72    2
    54   100    91   am
    55    65    64    2
    56    72    75   am
    57    70    64   am
    58    97    95   ar
    59    97    99   ar
    60    64    63    1
    61    66    63    1
    62    66    67    1
    63    92    91    2
    64    68    67    1
    65    95    94   ar
    66    91    90    1
    67   121   123    1
    68    99    98   ar
    69    63    62    1
    70    39    37   ar
    71    75    76    1
    72    67    69    1
    73    38    37   ar
    74    37    36    1
    75    78    77    2
    76    94    93    1
    77    94    96   ar
    78    77    76    1
    79    77    89   am
    80    76    79    1
    81    90    89    1
    82    90    93    1
    83   112   111    2
    84    62    56   am
    85    98    96   ar
    86   168   166    1
    87   111   110    1
    88    36    35    1
    89    56    57    2
    90    56    55    1
    91    35    32    1
    92    79    80    1
    93   166   165    1
    94   167   165    1
    95    54    55    1
    96   165   162    1
    97    55    58    1
    98   110   113    1
    99   110   109    1
   100   115   113    1
   101    80    82   ar
   102    80    81   ar
   103    85    82   ar
   104    85    87   ar
   105    30    29    1
   106    32    33    1
   107    32    31    1
   108    82    84   ar
   109   113   114    1
   110    87    88   ar
   111     8     6    1
   112    33    34    2
   113    81    83   ar
   114    58    59    1
   115    31    25   am
   116     7     5    1
   117   162   161    1
   118   162   163    1
   119    29    28    1
   120    84    83   ar
   121    84    86   ar
   122    59    61   ar
   123    59    60   ar
   124    88    86   ar
   125    43    42    2
   126    28    27    1
   127     6     5    1
   128   164   163    2
   129    27    24    1
   130     5     2    1
   131    25    24    1
   132    25    26    2
   133    42    41    1
   134    24    23    1
   135    46    48   ar
   136    46    45   ar
   137    48    49   ar
   138     4     3    2
   139     2     3    1
   140     2     1    1
   141     3     9   am
   142   186   185    1
   143    41    40    1
   144    41    44    1
   145    22    21    2
   146    23    21   am
   147    45    44    1
   148    45    47   ar
   149   180   179    1
   150    49    51   ar
   151    49    47   ar
   152     9    10    1
   153   187   185    1
   154    18    15    1
   155    21    20    1
   156    10    11    1
   157    10    13    1
   158    51    53   ar
   159   185   182    1
   160    47    50   ar
   161    11    14   am
   162    11    12    2
   163   179   177   ar
   164   179   178   ar
   165    14    15    1
   166   177   175   ar
   167    15    16    1
   168    53    52   ar
   169   182   181    1
   170   182   183    1
   171   178   176   ar
   172    20    19    1
   173   175   174   ar
   174    50    52   ar
   175   169   170    1
   176   176   174   ar
   177    16    17    2
   178   174   173    1
   179   183   184    2
   180   170   173    1
   181   170   171    1
   182   172   171    2
