@<TRIPOS>MOLECULE
tmp/1rxcF00.pdb
 98 91 0 0 0
SMALL
GASTEIGER

@<TRIPOS>ATOM
      1  N         -0.6740    5.5180    3.0170 N.3    23  GLY23      -0.1210
      2  CA         0.4860    5.3850    3.8850 C.3    23  GLY23       0.1956
      3  C          1.7890    5.6900    3.1760 C.2    23  GLY23       0.2611
      4  O          2.6300    6.4240    3.6910 O.2    23  GLY23      -0.2717
      5  N          1.9260    5.1480    1.9740 N.am   24  ASP24      -0.1973
      6  CA         3.1770    5.1660    1.2170 C.3    24  ASP24       0.1709
      7  C          3.3170    6.4250    0.3490 C.2    24  ASP24       0.2293
      8  O          2.4280    6.7090   -0.4550 O.2    24  ASP24      -0.2864
      9  CB         3.1990    3.9260    0.3160 C.3    24  ASP24       0.1436
     10  CG         4.4670    3.8140   -0.5160 C.2    24  ASP24       0.3671
     11  OD1        4.4660    3.0110   -1.4720 O.co2  24  ASP24      -0.2456
     12  OD2        5.5050    4.4590   -0.2890 O.co2  24  ASP24      -0.2456
     13  N          2.9150    6.1340   -3.5610 N.3    27  ARG27      -0.1245
     14  CA         1.5640    5.8710   -4.0530 C.3    27  ARG27       0.1563
     15  C          0.7570    7.1330   -4.3660 C.2    27  ARG27       0.2260
     16  O         -0.2610    7.0560   -5.0460 O.2    27  ARG27      -0.2867
     17  CB         0.7980    5.0420   -3.0140 C.3    27  ARG27       0.0307
     18  CG        -0.5720    4.5310   -3.4830 C.3    27  ARG27       0.0489
     19  CD        -0.9450    3.1320   -2.9820 C.3    27  ARG27       0.2205
     20  NE        -1.5030    3.1770   -1.6330 N.pl3  27  ARG27      -0.0865
     21  CZ        -1.0030    2.5660   -0.5570 C.cat  27  ARG27       0.5346
     22  NH1       -1.6160    2.7260    0.6090 N.pl3  27  ARG27       0.1354
     23  NH2        0.0930    1.8070   -0.6170 N.pl3  27  ARG27       0.1354
     24  N          4.1110    5.0930    7.6460 N.3    66  ILE66      -0.1245
     25  CA         3.6220    4.0350    8.5270 C.3    66  ILE66       0.1561
     26  C          3.5280    4.5610    9.9500 C.2    66  ILE66       0.2260
     27  O          4.4490    5.2100   10.4330 O.2    66  ILE66      -0.2867
     28  CB         4.5290    2.8000    8.4680 C.3    66  ILE66       0.0252
     29  CG1        4.4970    2.1850    7.0630 C.3    66  ILE66       0.0019
     30  CG2        4.0950    1.7800    9.4980 C.3    66  ILE66       0.0019
     31  CD1        5.6810    1.3060    6.7530 C.3    66  ILE66       0.0001
     32  N         -8.4790    7.4630    4.4700 N.3    88  ARG88      -0.1245
     33  CA        -7.3040    6.6110    4.3990 C.3    88  ARG88       0.1563
     34  C         -7.5740    5.4570    3.4570 C.2    88  ARG88       0.2260
     35  O         -8.6040    4.7920    3.5540 O.2    88  ARG88      -0.2867
     36  CB        -6.9040    6.0680    5.7640 C.3    88  ARG88       0.0307
     37  CG        -5.7830    5.0360    5.6700 C.3    88  ARG88       0.0489
     38  CD        -5.1090    4.7250    6.9830 C.3    88  ARG88       0.2205
     39  NE        -4.7290    3.3160    7.0180 N.pl3  88  ARG88      -0.0865
     40  CZ        -3.6960    2.7950    6.3760 C.cat  88  ARG88       0.5346
     41  NH1       -2.8790    3.5660    5.6620 N.pl3  88  ARG88       0.1354
     42  NH2       -3.4620    1.4910    6.4600 N.pl3  88  ARG88       0.1354
     43  N         -5.3490    2.0630    2.4380 N.3    90  GLY90      -0.1210
     44  CA        -4.1700    1.3350    2.8680 C.3    90  GLY90       0.1956
     45  C         -4.0800   -0.0730    2.3230 C.2    90  GLY90       0.2612
     46  O         -4.9200   -0.5030    1.5440 O.2    90  GLY90      -0.2717
     47  N         -3.0290   -0.7740    2.7370 N.am   91  THR91      -0.1952
     48  CA        -2.9230   -2.2220    2.5570 C.3    91  THR91       0.1897
     49  C         -3.0720   -2.8930    3.9120 C.2    91  THR91       0.2313
     50  O         -2.9060   -2.2580    4.9490 O.2    91  THR91      -0.2863
     51  CB        -1.5930   -2.6150    1.9190 C.3    91  THR91       0.1794
     52  OG1       -0.5170   -2.1360    2.7180 O.3    91  THR91      -0.2208
     53  CG2       -1.4020   -1.9360    0.5660 C.3    91  THR91       0.0378
     54  N          4.0890   -3.8710   13.0650 N.3   159  PHE159     -0.1241
     55  CA         3.8230   -4.8440   12.0180 C.3   159  PHE159      0.1605
     56  C          4.0180   -6.2440   12.5420 C.2   159  PHE159      0.2264
     57  O          3.3160   -7.1720   12.1190 O.2   159  PHE159     -0.2867
     58  CB         4.8010   -4.6070   10.8600 C.3   159  PHE159      0.0534
     59  CG         4.4740   -5.3660    9.6030 C.ar  159  PHE159     -0.0203
     60  CD1        3.4970   -4.9070    8.7410 C.ar  159  PHE159     -0.0042
     61  CD2        5.1740   -6.5100    9.2700 C.ar  159  PHE159     -0.0042
     62  CE1        3.1960   -5.5990    7.5670 C.ar  159  PHE159     -0.0003
     63  CE2        4.8890   -7.2180    8.0960 C.ar  159  PHE159     -0.0003
     64  CZ         3.8970   -6.7650    7.2500 C.ar  159  PHE159     -0.0000
     65  N         -4.0720   -3.5720   10.4350 N.3   193  GLU193     -0.1231
     66  CA        -3.2010   -2.5860    9.8040 C.3   193  GLU193      0.1699
     67  C         -2.6470   -1.6780   10.9100 C.2   193  GLU193      0.2592
     68  O         -2.6780   -2.0650   12.0730 O.2   193  GLU193     -0.2718
     69  CB        -3.9070   -1.8310    8.6610 C.3   193  GLU193      0.0402
     70  CG        -5.2550   -1.2220    9.0050 C.3   193  GLU193      0.1161
     71  CD        -5.1170    0.0820    9.7570 C.2   193  GLU193      0.3649
     72  OE1       -4.6670    1.0740    9.1340 O.co2 193  GLU193     -0.2457
     73  OE2       -5.4300    0.1030   10.9760 O.co2 193  GLU193     -0.2457
     74  N         -2.1500   -0.4870   10.5790 N.am  194  MET194     -0.1965
     75  CA        -1.3540    0.2780   11.5350 C.3   194  MET194      0.1736
     76  C         -1.7490    1.7360   11.7940 C.2   194  MET194      0.2616
     77  O         -1.2190    2.3320   12.7270 O.2   194  MET194     -0.2715
     78  CB         0.1270    0.1820   11.1360 C.3   194  MET194      0.0427
     79  CG         0.6680   -1.2420   11.2360 C.3   194  MET194      0.0599
     80  SD         2.4040   -1.4890   10.7850 S.3   194  MET194     -0.1393
     81  CE         3.2920   -0.6440   12.1340 C.3   194  MET194      0.0692
     82  N         -2.6730    2.3210   11.0300 N.am  195  GLU195     -0.1977
     83  CA        -2.9430    3.7610   11.1560 C.3   195  GLU195      0.1602
     84  C         -4.3660    4.1650   11.5530 C.2   195  GLU195      0.2287
     85  O         -4.5660    5.3020   12.0170 O.2   195  GLU195     -0.2864
     86  CB        -2.5480    4.5040    9.8660 C.3   195  GLU195      0.0415
     87  CG        -1.0410    4.5080    9.5990 C.3   195  GLU195      0.1163
     88  CD        -0.5340    3.2220    8.9530 C.2   195  GLU195      0.3649
     89  OE1       -1.3000    2.5670    8.2310 O.co2 195  GLU195     -0.2457
     90  OE2        0.6450    2.8600    9.1600 O.co2 195  GLU195     -0.2457
     91  N         -3.5180   -7.8450    1.0580 N.3   217  ILE217     -0.1245
     92  CA        -2.3450   -8.3580    0.3500 C.3   217  ILE217      0.1561
     93  C         -1.8410   -9.6740    0.9180 C.2   217  ILE217      0.2260
     94  O         -0.9560  -10.2750    0.3400 O.2   217  ILE217     -0.2867
     95  CB        -1.1960   -7.3120    0.3450 C.3   217  ILE217      0.0252
     96  CG1       -0.8570   -6.8240    1.7660 C.3   217  ILE217      0.0019
     97  CG2       -1.5740   -6.1300   -0.5260 C.3   217  ILE217      0.0019
     98  CD1        0.3890   -5.9290    1.8330 C.3   217  ILE217      0.0001
@<TRIPOS>BOND
     1    16    15    2
     2    15    14    1
     3    14    13    1
     4    14    17    1
     5    18    17    1
     6    18    19    1
     7    19    20    1
     8    20    21    2
     9    11    10   ar
    10    23    21    1
    11    21    22    1
    12    97    95    1
    13    10    12   ar
    14    10     9    1
    15     8     7    2
    16     9     6    1
    17    94    93    2
    18    95    92    1
    19    95    96    1
    20     7     6    1
    21    92    93    1
    22    92    91    1
    23    53    51    1
    24     6     5    1
    25    46    45    2
    26    96    98    1
    27    51    48    1
    28    51    52    1
    29     5     3   am
    30    45    47   am
    31    45    44    1
    32    43    44    1
    33    48    47    1
    34    48    49    1
    35     1     2    1
    36     3     4    2
    37     3     2    1
    38    34    35    2
    39    34    33    1
    40    49    50    2
    41    33    32    1
    42    33    36    1
    43    41    40    1
    44    37    36    1
    45    37    38    1
    46    40    42    1
    47    40    39    2
    48    31    29    1
    49    38    39    1
    50    29    28    1
    51    64    62   ar
    52    64    63   ar
    53    62    60   ar
    54    24    25    1
    55    63    61   ar
    56    89    88   ar
    57    28    25    1
    58    28    30    1
    59    25    26    1
    60    69    70    1
    61    69    66    1
    62    60    59   ar
    63    88    90   ar
    64    88    87    1
    65    70    71    1
    66    72    71   ar
    67    61    59   ar
    68    87    86    1
    69    59    58    1
    70    71    73   ar
    71    66    65    1
    72    66    67    1
    73    86    83    1
    74    26    27    2
    75    74    67   am
    76    74    75    1
    77    80    79    1
    78    80    81    1
    79    58    55    1
    80    67    68    2
    81    82    83    1
    82    82    76   am
    83    78    79    1
    84    78    75    1
    85    83    84    1
    86    75    76    1
    87    84    85    2
    88    76    77    2
    89    55    56    1
    90    55    54    1
    91    57    56    2
