@<TRIPOS>MOLECULE
tmp/1rxeA00.pdb
 88 79 0 0 0
SMALL
GASTEIGER

@<TRIPOS>ATOM
      1  N         13.9040    4.9100   38.5790 N.3     9  ILE9       -0.1245
      2  CA        15.1470    5.0540   39.3020 C.3     9  ILE9        0.1561
      3  C         14.9260    5.2280   40.7890 C.2     9  ILE9        0.2260
      4  O         14.0140    5.9280   41.2250 O.2     9  ILE9       -0.2867
      5  CB        15.9170    6.2480   38.7450 C.3     9  ILE9        0.0252
      6  CG1       16.2500    5.9370   37.2850 C.3     9  ILE9        0.0019
      7  CG2       17.1590    6.5320   39.5810 C.3     9  ILE9        0.0019
      8  CD1       16.8580    7.0440   36.5510 C.3     9  ILE9        0.0001
      9  N         21.0300    4.2510   42.2280 N.3    39  ILE39      -0.1245
     10  CA        22.2910    4.9490   42.4730 C.3    39  ILE39       0.1561
     11  C         23.3530    3.8770   42.7480 C.2    39  ILE39       0.2260
     12  O         24.5350    4.0540   42.4430 O.2    39  ILE39      -0.2867
     13  CB        22.1470    5.9090   43.6680 C.3    39  ILE39       0.0252
     14  CG1       21.0880    6.9670   43.3320 C.3    39  ILE39       0.0019
     15  CG2       23.4850    6.5610   43.9950 C.3    39  ILE39       0.0019
     16  CD1       20.7940    7.9410   44.4590 C.3    39  ILE39       0.0001
     17  N         22.4980    3.5010   36.9880 N.3    67  ILE67      -0.1245
     18  CA        21.9160    4.4590   36.0540 C.3    67  ILE67       0.1561
     19  C         22.7920    4.6140   34.8050 C.2    67  ILE67       0.2260
     20  O         23.9410    5.0600   34.8800 O.2    67  ILE67      -0.2867
     21  CB        21.7260    5.8260   36.7450 C.3    67  ILE67       0.0252
     22  CG1       20.8310    5.6500   37.9760 C.3    67  ILE67       0.0019
     23  CG2       21.1000    6.8240   35.7810 C.3    67  ILE67       0.0019
     24  CD1       20.7140    6.8950   38.8490 C.3    67  ILE67       0.0001
     25  N         23.4280    6.5170   31.5240 N.3    69  ASN69      -0.1240
     26  CA        23.1390    7.7800   30.8620 C.3    69  ASN69       0.1653
     27  C         22.6650    7.6040   29.4190 C.2    69  ASN69       0.2266
     28  O         21.9520    8.4540   28.8870 O.2    69  ASN69      -0.2867
     29  CB        24.3740    8.6870   30.9260 C.3    69  ASN69       0.1155
     30  CG        24.1480   10.0290   30.2610 C.2    69  ASN69       0.2627
     31  OD1       24.2960   10.1680   29.0480 O.2    69  ASN69      -0.2716
     32  ND2       23.7650   11.0220   31.0540 N.am   69  ASN69      -0.0877
     33  N         19.0370    6.9890   29.9590 N.3    72  LEU72      -0.1245
     34  CA        18.4450    8.1950   30.5200 C.3    72  LEU72       0.1561
     35  C         18.2070    9.2190   29.4060 C.2    72  LEU72       0.2260
     36  O         17.1270    9.8030   29.3070 O.2    72  LEU72      -0.2867
     37  CB        19.3740    8.7670   31.6020 C.3    72  LEU72       0.0270
     38  CG        18.9110    9.9750   32.4210 C.3    72  LEU72       0.0019
     39  CD1       17.6140    9.6450   33.1480 C.3    72  LEU72       0.0001
     40  CD2       19.9970   10.3510   33.4250 C.3    72  LEU72       0.0001
     41  N         11.2520    9.7230   33.1310 N.3    78  VAL78      -0.1245
     42  CA        12.0800    9.1730   34.1910 C.3    78  VAL78       0.1561
     43  C         11.2230    9.2950   35.4420 C.2    78  VAL78       0.2260
     44  O         10.7100   10.3720   35.7340 O.2    78  VAL78      -0.2867
     45  CB        13.3690    9.9860   34.4160 C.3    78  VAL78       0.0252
     46  CG1       14.1060    9.4570   35.6410 C.3    78  VAL78       0.0019
     47  CG2       14.2640    9.8990   33.1840 C.3    78  VAL78       0.0019
     48  N         11.3470    8.7860   39.4910 N.3    80  THR80      -0.1218
     49  CA        12.1840    8.5560   40.6610 C.3    80  THR80       0.1862
     50  C         11.2640    7.9840   41.7380 C.2    80  THR80       0.2287
     51  O         10.1720    8.5070   41.9770 O.2    80  THR80      -0.2866
     52  CB        12.8370    9.8640   41.1470 C.3    80  THR80       0.1770
     53  OG1       11.8330   10.8760   41.2980 O.3    80  THR80      -0.2211
     54  CG2       13.8920   10.3360   40.1470 C.3    80  THR80       0.0375
     55  N         16.9920    9.3920   45.2450 N.3    85  ALA85      -0.1245
     56  CA        17.1750    9.3990   43.7980 C.3    85  ALA85       0.1562
     57  C         16.7260   10.7340   43.2020 C.2    85  ALA85       0.2260
     58  O         17.4000   11.3080   42.3480 O.2    85  ALA85      -0.2867
     59  CB        16.3970    8.2530   43.1570 C.3    85  ALA85       0.0290
     60  N         19.1210   13.6980   43.9940 N.3    88  ASN88      -0.1225
     61  CA        20.4310   13.5770   43.3580 C.3    88  ASN88       0.1785
     62  C         20.3680   13.5150   41.8400 C.2    88  ASN88       0.2597
     63  O         21.3820   13.3340   41.1680 O.2    88  ASN88      -0.2718
     64  CB        21.1620   12.3540   43.9030 C.3    88  ASN88       0.1169
     65  CG        21.7930   12.6220   45.2480 C.2    88  ASN88       0.2627
     66  OD1       22.7790   13.3550   45.3410 O.2    88  ASN88      -0.2716
     67  ND2       21.2170   12.0550   46.3020 N.am   88  ASN88      -0.0877
     68  N         19.1690   13.6790   41.3030 N.am   89  CYS89      -0.1957
     69  CA        18.9840   13.6500   39.8640 C.3    89  CYS89       0.1828
     70  C         19.5220   14.9880   39.3380 C.2    89  CYS89       0.2467
     71  O         19.1260   16.0560   39.8040 O.2    89  CYS89      -0.2730
     72  CB        17.4890   13.4540   39.5640 C.3    89  CYS89       0.0996
     73  SG        17.0430   12.9240   37.8790 S.3    89  CYS89      -0.0797
     74  N         20.4730   14.9460   38.3890 N.am   90  PRO90      -0.2726
     75  CA        21.0610   16.1600   37.8150 C.3    90  PRO90       0.1402
     76  C         20.1240   16.8260   36.8130 C.2    90  PRO90       0.2269
     77  O         19.0230   16.3340   36.5610 O.2    90  PRO90      -0.2865
     78  CB        22.3140   15.6300   37.1060 C.3    90  PRO90       0.0296
     79  CG        22.5330   14.2380   37.7350 C.3    90  PRO90       0.0237
     80  CD        21.1120   13.7680   37.7880 C.3    90  PRO90       0.0939
     81  N         18.5140   17.3090   33.6160 N.3    92  LEU92      -0.1245
     82  CA        18.3290   16.3090   32.5730 C.3    92  LEU92       0.1561
     83  C         18.2830   16.9340   31.1880 C.2    92  LEU92       0.2260
     84  O         18.1280   18.1490   31.0490 O.2    92  LEU92      -0.2867
     85  CB        17.0250   15.5490   32.8170 C.3    92  LEU92       0.0270
     86  CG        16.9050   14.7970   34.1430 C.3    92  LEU92       0.0019
     87  CD1       15.5180   14.1870   34.2540 C.3    92  LEU92       0.0001
     88  CD2       17.9770   13.7240   34.2170 C.3    92  LEU92       0.0001
@<TRIPOS>BOND
     1    28    27    2
     2    31    30    2
     3    36    35    2
     4    35    34    1
     5    27    26    1
     6    33    34    1
     7    30    29    1
     8    30    32   am
     9    34    37    1
    10    26    29    1
    11    26    25    1
    12    84    83    2
    13    83    82    1
    14    37    38    1
    15    38    39    1
    16    38    40    1
    17    82    85    1
    18    82    81    1
    19    85    86    1
    20    41    42    1
    21    47    45    1
    22    86    88    1
    23    86    87    1
    24    42    45    1
    25    42    43    1
    26    45    46    1
    27    19    20    2
    28    19    18    1
    29    43    44    2
    30    23    21    1
    31    18    21    1
    32    18    17    1
    33     8     6    1
    34    77    76    2
    35    21    22    1
    36    76    75    1
    37    78    79    1
    38    78    75    1
    39     6     5    1
    40    79    80    1
    41    80    74    1
    42    75    74    1
    43    73    72    1
    44    22    24    1
    45    74    70   am
    46     1     2    1
    47     5     2    1
    48     5     7    1
    49     2     3    1
    50    70    71    2
    51    70    69    1
    52    48    49    1
    53    72    69    1
    54    69    68    1
    55    54    52    1
    56    49    52    1
    57    49    50    1
    58     3     4    2
    59    52    53    1
    60    63    62    2
    61    68    62   am
    62    50    51    2
    63    62    61    1
    64     9    10    1
    65    58    57    2
    66    12    11    2
    67    10    11    1
    68    10    13    1
    69    59    56    1
    70    57    56    1
    71    14    13    1
    72    14    16    1
    73    61    64    1
    74    61    60    1
    75    13    15    1
    76    56    55    1
    77    64    65    1
    78    65    66    2
    79    65    67   am
