@<TRIPOS>MOLECULE
tmp/1rxkB00.pdb
 144 135 0 0 0
SMALL
GASTEIGER

@<TRIPOS>ATOM
      1  N         29.3530   -7.2980   27.1910 N.3    10  ASN10      -0.1240
      2  CA        30.7500   -6.8970   26.9480 C.3    10  ASN10       0.1653
      3  C         31.7140   -7.6830   27.8260 C.2    10  ASN10       0.2266
      4  O         31.2950   -8.4870   28.6510 O.2    10  ASN10      -0.2867
      5  CB        31.0000   -5.3910   27.0430 C.3    10  ASN10       0.1155
      6  CG        30.9240   -4.8500   28.4260 C.2    10  ASN10       0.2627
      7  OD1       30.8440   -5.5990   29.4330 O.2    10  ASN10      -0.2716
      8  ND2       30.9310   -3.5150   28.5110 N.am   10  ASN10      -0.0877
      9  N         33.4500   -6.6770   30.3290 N.3    12  LEU12      -0.1245
     10  CA        33.3430   -6.2860   31.7440 C.3    12  LEU12       0.1561
     11  C         32.1420   -6.8650   32.5050 C.2    12  LEU12       0.2260
     12  O         31.9070   -6.4920   33.6790 O.2    12  LEU12      -0.2867
     13  CB        33.2410   -4.7680   31.8750 C.3    12  LEU12       0.0270
     14  CG        34.4900   -3.9730   31.5620 C.3    12  LEU12       0.0019
     15  CD1       34.1890   -2.4510   31.5640 C.3    12  LEU12       0.0001
     16  CD2       35.5740   -4.3260   32.5750 C.3    12  LEU12       0.0001
     17  N         28.9330   -6.3100   31.6010 N.3    14  SER14      -0.1217
     18  CA        27.7550   -5.4620   31.4490 C.3    14  SER14       0.1889
     19  C         26.7770   -6.0740   30.4540 C.2    14  SER14       0.2288
     20  O         27.1880   -6.7860   29.5150 O.2    14  SER14      -0.2866
     21  CB        28.1420   -4.0330   31.0310 C.3    14  SER14       0.2089
     22  OG        28.9030   -3.3890   32.0410 O.3    14  SER14      -0.2183
     23  N         20.9420   -0.2970   29.9700 N.3    30  TYR30      -0.1241
     24  CA        22.3130   -0.7040   30.1960 C.3    30  TYR30       0.1605
     25  C         22.4840   -1.0500   31.6570 C.2    30  TYR30       0.2264
     26  O         22.1740   -0.2560   32.5650 O.2    30  TYR30      -0.2867
     27  CB        23.2620    0.4190   29.7950 C.3    30  TYR30       0.0534
     28  CG        24.6690   -0.0570   29.4740 C.ar   30  TYR30      -0.0201
     29  CD1       25.6090   -0.2310   30.4700 C.ar   30  TYR30      -0.0009
     30  CD2       25.0420   -0.3360   28.1690 C.ar   30  TYR30      -0.0009
     31  CE1       26.8890   -0.6440   30.1790 C.ar   30  TYR30       0.0417
     32  CE2       26.3300   -0.7710   27.8670 C.ar   30  TYR30       0.0417
     33  CZ        27.2460   -0.9280   28.8700 C.ar   30  TYR30       0.1957
     34  OH        28.5160   -1.4080   28.5660 O.3    30  TYR30      -0.2866
     35  N         25.2250   -2.4850   34.5600 N.3    32  SER32      -0.1217
     36  CA        26.5640   -2.8450   35.0170 C.3    32  SER32       0.1889
     37  C         26.5870   -4.2050   35.6910 C.2    32  SER32       0.2288
     38  O         25.5690   -4.6910   36.2030 O.2    32  SER32      -0.2866
     39  CB        27.0700   -1.7990   35.9980 C.3    32  SER32       0.2089
     40  OG        27.2700   -0.5590   35.3530 O.3    32  SER32      -0.2183
     41  N         24.5390    8.2320   34.1110 N.3    69  TRP69      -0.1241
     42  CA        24.6460    7.2800   35.2240 C.3    69  TRP69       0.1605
     43  C         23.8230    7.7230   36.4270 C.2    69  TRP69       0.2264
     44  O         24.2590    7.6890   37.5810 O.2    69  TRP69      -0.2867
     45  CB        26.1130    7.0440   35.5550 C.3    69  TRP69       0.0550
     46  CG        26.8070    6.3540   34.4220 C.ar   69  TRP69       0.0003
     47  CD1       27.6580    6.9100   33.5350 C.ar   69  TRP69       0.0946
     48  CD2       26.7070    4.9510   34.0520 C.ar   69  TRP69       0.0152
     49  NE1       28.1010    5.9680   32.6300 N.ar   69  TRP69      -0.2442
     50  CE2       27.5200    4.7650   32.9130 C.ar   69  TRP69       0.0810
     51  CE3       26.0090    3.8400   34.5710 C.ar   69  TRP69       0.0012
     52  CZ2       27.6980    3.5270   32.3010 C.ar   69  TRP69       0.0191
     53  CZ3       26.1690    2.5890   33.9250 C.ar   69  TRP69       0.0001
     54  CH2       27.0030    2.4570   32.8090 C.ar   69  TRP69       0.0015
     55  N         20.5780    5.6360   42.1690 N.3    74  ARG74      -0.1245
     56  CA        21.9750    5.9870   42.2760 C.3    74  ARG74       0.1563
     57  C         22.2550    7.0990   41.2480 C.2    74  ARG74       0.2260
     58  O         21.5350    7.2480   40.2280 O.2    74  ARG74      -0.2867
     59  CB        22.8690    4.7580   41.9760 C.3    74  ARG74       0.0307
     60  CG        22.6360    3.4900   42.7710 C.3    74  ARG74       0.0489
     61  CD        23.8540    2.5100   42.8240 C.3    74  ARG74       0.2205
     62  NE        24.5220    2.3280   41.5350 N.pl3  74  ARG74      -0.0865
     63  CZ        25.6950    1.6930   41.3390 C.cat  74  ARG74       0.5346
     64  NH1       26.3740    1.1630   42.3550 N.pl3  74  ARG74       0.1354
     65  NH2       26.1850    1.5780   40.1060 N.pl3  74  ARG74       0.1354
     66  N         25.9230    8.7800   39.7120 N.3    76  ALA76      -0.1245
     67  CA        27.3710    8.8860   39.6800 C.3    76  ALA76       0.1562
     68  C         27.8560   10.2220   39.1270 C.2    76  ALA76       0.2260
     69  O         29.0470   10.4480   39.1050 O.2    76  ALA76      -0.2867
     70  CB        27.9820    7.7460   38.8620 C.3    76  ALA76       0.0290
     71  N         27.8600   11.4350   36.0330 N.3    78  SER78      -0.1217
     72  CA        28.7090   11.0910   34.8910 C.3    78  SER78       0.1889
     73  C         27.8510   10.5890   33.7430 C.2    78  SER78       0.2288
     74  O         26.6630   10.2210   33.9150 O.2    78  SER78      -0.2866
     75  CB        29.7280   10.0180   35.2770 C.3    78  SER78       0.2089
     76  OG        29.0660    8.8240   35.5760 O.3    78  SER78      -0.2183
     77  N         28.4690    8.1930   29.8270 N.3    80  THR80      -0.1218
     78  CA        29.3170    7.5060   28.8640 C.3    80  THR80       0.1862
     79  C         28.6320    7.5430   27.4950 C.2    80  THR80       0.2287
     80  O         27.4350    7.3020   27.3900 O.2    80  THR80      -0.2866
     81  CB        29.5510    6.0540   29.2950 C.3    80  THR80       0.1770
     82  OG1       30.1850    6.0480   30.5730 O.3    80  THR80      -0.2211
     83  CG2       30.4710    5.3170   28.3130 C.3    80  THR80       0.0375
     84  N         29.1700    5.5320   23.7850 N.3    82  TRP82      -0.1241
     85  CA        29.8210    4.5290   22.9560 C.3    82  TRP82       0.1605
     86  C         29.6150    4.8540   21.4770 C.2    82  TRP82       0.2264
     87  O         28.5190    5.1070   21.0430 O.2    82  TRP82      -0.2867
     88  CB        29.2350    3.1480   23.2270 C.3    82  TRP82       0.0550
     89  CG        29.4920    2.5490   24.6290 C.ar   82  TRP82       0.0003
     90  CD1       30.3530    1.5440   24.9340 C.ar   82  TRP82       0.0946
     91  CD2       28.7760    2.8220   25.8350 C.ar   82  TRP82       0.0152
     92  NE1       30.2930    1.2210   26.2650 N.ar   82  TRP82      -0.2442
     93  CE2       29.3320    1.9820   26.8530 C.ar   82  TRP82       0.0810
     94  CE3       27.7690    3.7140   26.1870 C.ar   82  TRP82       0.0012
     95  CZ2       28.8780    1.9830   28.1430 C.ar   82  TRP82       0.0191
     96  CZ3       27.3070    3.7140   27.5040 C.ar   82  TRP82       0.0001
     97  CH2       27.8480    2.8250   28.4460 C.ar   82  TRP82       0.0015
     98  N         34.6680    4.2060   23.8190 N.3    98  TRP98      -0.1241
     99  CA        33.7580    4.9870   24.6610 C.3    98  TRP98       0.1605
    100  C         34.4960    6.1260   25.3610 C.2    98  TRP98       0.2264
    101  O         35.7130    6.0730   25.5420 O.2    98  TRP98      -0.2867
    102  CB        33.0190    4.1170   25.7160 C.3    98  TRP98       0.0550
    103  CG        33.8640    3.2070   26.5610 C.ar   98  TRP98       0.0003
    104  CD1       34.0190    1.8340   26.4420 C.ar   98  TRP98       0.0946
    105  CD2       34.6050    3.5750   27.7320 C.ar   98  TRP98       0.0152
    106  NE1       34.8280    1.3560   27.4390 N.ar   98  TRP98      -0.2442
    107  CE2       35.2300    2.3950   28.2330 C.ar   98  TRP98       0.0810
    108  CE3       34.8350    4.7830   28.3980 C.ar   98  TRP98       0.0012
    109  CZ2       36.0260    2.3870   29.3900 C.ar   98  TRP98       0.0191
    110  CZ3       35.6480    4.7610   29.5620 C.ar   98  TRP98       0.0001
    111  CH2       36.2390    3.5770   30.0130 C.ar   98  TRP98       0.0015
    112  N         33.8360    8.4820   28.9040 N.3   100  LEU100     -0.1245
    113  CA        33.1060    8.6130   30.1690 C.3   100  LEU100      0.1561
    114  C         33.4920    9.9600   30.7660 C.2   100  LEU100      0.2260
    115  O         34.6320   10.1260   31.1650 O.2   100  LEU100     -0.2867
    116  CB        33.5250    7.4870   31.1150 C.3   100  LEU100      0.0270
    117  CG        33.1090    7.5520   32.5920 C.3   100  LEU100      0.0019
    118  CD1       31.6140    7.7780   32.7930 C.3   100  LEU100      0.0001
    119  CD2       33.5810    6.2650   33.3110 C.3   100  LEU100      0.0001
    120  N         32.9410   12.6790   33.7330 N.3   102  SER102     -0.1217
    121  CA        32.4000   12.9830   35.0660 C.3   102  SER102      0.1889
    122  C         32.1450   14.4950   35.1810 C.2   102  SER102      0.2288
    123  O         32.9180   15.3040   34.6340 O.2   102  SER102     -0.2866
    124  CB        33.4180   12.5710   36.1570 C.3   102  SER102      0.2089
    125  OG        33.6080   11.1590   36.1800 O.3   102  SER102     -0.2183
    126  N         37.4680    9.8100   30.7930 N.3   114  ARG114     -0.1245
    127  CA        38.1150    8.5470   30.5930 C.3   114  ARG114      0.1563
    128  C         37.7240    8.0020   29.2060 C.2   114  ARG114      0.2260
    129  O         36.6540    8.2750   28.6360 O.2   114  ARG114     -0.2867
    130  CB        37.7050    7.5620   31.6780 C.3   114  ARG114      0.0307
    131  CG        38.2610    7.9440   33.0810 C.3   114  ARG114      0.0489
    132  CD        37.8890    7.0030   34.1500 C.3   114  ARG114      0.2205
    133  NE        37.8220    7.6830   35.4490 N.pl3 114  ARG114     -0.0865
    134  CZ        38.7900    7.7250   36.3440 C.cat 114  ARG114      0.5346
    135  NH1       39.9370    7.1150   36.1420 N.pl3 114  ARG114      0.1354
    136  NH2       38.6090    8.3870   37.4620 N.pl3 114  ARG114      0.1354
    137  N         34.9480   -1.2340   24.3500 N.3   118  ASP118     -0.1239
    138  CA        34.1110   -2.3590   24.7320 C.3   118  ASP118      0.1674
    139  C         33.7800   -3.1600   23.4760 C.2   118  ASP118      0.2266
    140  O         33.4400   -2.6090   22.4260 O.2   118  ASP118     -0.2867
    141  CB        32.8050   -1.8990   25.3670 C.3   118  ASP118      0.1410
    142  CG        32.9390   -1.4660   26.8120 C.2   118  ASP118      0.3668
    143  OD1       34.0100   -1.6040   27.4400 O.co2 118  ASP118     -0.2456
    144  OD2       31.9790   -0.9240   27.3570 O.co2 118  ASP118     -0.2456
@<TRIPOS>BOND
     1    87    86    2
     2    86    85    1
     3   140   139    2
     4    85    88    1
     5    85    84    1
     6    88    89    1
     7   139   138    1
     8    98    99    1
     9   137   138    1
    10    89    90   ar
    11    89    91   ar
    12    99   100    1
    13    99   102    1
    14   138   141    1
    15    90    92   ar
    16   100   101    2
    17   141   142    1
    18   102   103    1
    19    91    94   ar
    20    91    93   ar
    21    94    96   ar
    22    92    93   ar
    23   104   103   ar
    24   104   106   ar
    25   103   105   ar
    26   142   144   ar
    27   142   143   ar
    28    93    95   ar
    29     2     5    1
    30     2     1    1
    31     2     3    1
    32     5     6    1
    33    80    79    2
    34   106   107   ar
    35    79    78    1
    36    96    97   ar
    37   105   107   ar
    38   105   108   ar
    39     3     4    2
    40    32    30   ar
    41    32    33   ar
    42    95    97   ar
    43    30    28   ar
    44   107   109   ar
    45    83    81    1
    46   108   110   ar
    47     6     8   am
    48     6     7    2
    49    34    33    1
    50   129   128    2
    51    78    81    1
    52    78    77    1
    53    33    31   ar
    54   112   113    1
    55   128   127    1
    56    81    82    1
    57   109   111   ar
    58    28    27    1
    59    28    29   ar
    60    20    19    2
    61   110   111   ar
    62    27    24    1
    63    23    24    1
    64   113   114    1
    65   113   116    1
    66    31    29   ar
    67    24    25    1
    68     9    10    1
    69    19    18    1
    70   127   126    1
    71   127   130    1
    72   114   115    2
    73    21    18    1
    74    21    22    1
    75   116   117    1
    76    18    17    1
    77    14    15    1
    78    14    13    1
    79    14    16    1
    80    25    26    2
    81   130   131    1
    82    10    13    1
    83    10    11    1
    84    52    54   ar
    85    52    50   ar
    86    11    12    2
    87   117   118    1
    88   117   119    1
    89    49    50   ar
    90    49    47   ar
    91    54    53   ar
    92    50    48   ar
    93   131   132    1
    94    47    46   ar
    95   120   121    1
    96    73    74    2
    97    73    72    1
    98    53    51   ar
    99    48    46   ar
   100    48    51   ar
   101    41    42    1
   102   132   133    1
   103    46    45    1
   104    35    36    1
   105   123   122    2
   106    72    75    1
   107    72    71    1
   108    36    37    1
   109    36    39    1
   110   121   122    1
   111   121   124    1
   112    42    45    1
   113    42    43    1
   114    75    76    1
   115    40    39    1
   116   133   134    2
   117    37    38    2
   118   135   134    1
   119   124   125    1
   120   134   136    1
   121    43    44    2
   122    70    67    1
   123    69    68    2
   124    68    67    1
   125    67    66    1
   126    65    63    1
   127    58    57    2
   128    57    56    1
   129    63    62    2
   130    63    64    1
   131    62    61    1
   132    59    56    1
   133    59    60    1
   134    55    56    1
   135    60    61    1
