@<TRIPOS>MOLECULE
tmp/1rxmA00.pdb
 206 201 0 0 0
SMALL
GASTEIGER

@<TRIPOS>ATOM
      1  N         47.6390   59.6610   42.3390 N.3    39  VAL39      -0.1245
      2  CA        46.4390   59.2370   41.6450 C.3    39  VAL39       0.1561
      3  C         46.9140   58.1400   40.7190 C.2    39  VAL39       0.2260
      4  O         47.9710   58.2720   40.1010 O.2    39  VAL39      -0.2867
      5  CB        45.8520   60.3820   40.8160 C.3    39  VAL39       0.0252
      6  CG1       44.5820   59.9210   40.1100 C.3    39  VAL39       0.0019
      7  CG2       45.5640   61.5520   41.7130 C.3    39  VAL39       0.0019
      8  N         44.7140   55.4900   36.0900 N.3    42  ALA42      -0.1231
      9  CA        43.3850   55.3150   35.5060 C.3    42  ALA42       0.1694
     10  C         42.5980   56.5930   35.7150 C.2    42  ALA42       0.2592
     11  O         41.6250   56.8730   35.0090 O.2    42  ALA42      -0.2718
     12  CB        42.6620   54.1570   36.1640 C.3    42  ALA42       0.0304
     13  N         43.0400   57.3680   36.6990 N.am   43  ASN43      -0.1960
     14  CA        42.3910   58.6190   37.0400 C.3    43  ASN43       0.1819
     15  C         41.0620   58.2440   37.7070 C.2    43  ASN43       0.2621
     16  O         40.0310   58.8840   37.4980 O.2    43  ASN43      -0.2715
     17  CB        42.1720   59.4410   35.7670 C.3    43  ASN43       0.1195
     18  CG        41.7240   60.8540   36.0490 C.2    43  ASN43       0.2630
     19  OD1       41.1730   61.5140   35.1730 O.2    43  ASN43      -0.2716
     20  ND2       41.9640   61.3320   37.2620 N.am   43  ASN43      -0.0877
     21  N         41.1210   57.1950   38.5230 N.am   44  VAL44      -0.1963
     22  CA        39.9590   56.6740   39.2370 C.3    44  VAL44       0.1727
     23  C         40.1490   56.7190   40.7620 C.2    44  VAL44       0.2616
     24  O         39.2320   57.0820   41.5110 O.2    44  VAL44      -0.2715
     25  CB        39.6750   55.2050   38.7940 C.3    44  VAL44       0.0290
     26  CG1       38.5600   54.5870   39.6240 C.3    44  VAL44       0.0023
     27  CG2       39.3000   55.1830   37.3310 C.3    44  VAL44       0.0023
     28  N         41.3410   56.3650   41.2250 N.am   45  ALA45      -0.1963
     29  CA        41.5950   56.3510   42.6570 C.3    45  ALA45       0.1728
     30  C         42.7460   57.2330   43.1110 C.2    45  ALA45       0.2616
     31  O         43.7230   57.4420   42.3910 O.2    45  ALA45      -0.2715
     32  CB        41.8270   54.9150   43.1240 C.3    45  ALA45       0.0334
     33  N         42.6180   57.7190   44.3400 N.am   46  MET46      -0.1977
     34  CA        43.6060   58.5900   44.9540 C.3    46  MET46       0.1605
     35  C         43.9260   58.0980   46.3650 C.2    46  MET46       0.2287
     36  O         43.0370   57.6980   47.1070 O.2    46  MET46      -0.2864
     37  CB        43.0380   60.0050   45.0190 C.3    46  MET46       0.0413
     38  CG        43.9920   61.0730   45.4850 C.3    46  MET46       0.0598
     39  SD        43.1830   62.6880   45.3570 S.3    46  MET46      -0.1393
     40  CE        43.5480   63.3940   46.9730 C.3    46  MET46       0.0692
     41  N         48.1370   65.4260   42.8450 N.3   120  PRO120     -0.2102
     42  CA        46.8480   66.1140   42.7750 C.3   120  PRO120      0.1504
     43  C         46.6560   66.9700   44.0180 C.2   120  PRO120      0.2575
     44  O         47.4620   66.9180   44.9480 O.2   120  PRO120     -0.2718
     45  CB        45.8600   64.9620   42.7120 C.3   120  PRO120      0.0282
     46  CG        46.5060   63.9610   43.6340 C.3   120  PRO120      0.0208
     47  CD        47.9580   64.0060   43.1980 C.3   120  PRO120      0.0893
     48  N         45.5890   67.7580   44.0320 N.am  121  ARG121     -0.1980
     49  CA        45.3040   68.6150   45.1730 C.3   121  ARG121      0.1597
     50  C         44.2680   67.9620   46.0790 C.2   121  ARG121      0.2287
     51  O         43.3050   67.3650   45.6010 O.2   121  ARG121     -0.2864
     52  CB        44.8250   69.9890   44.6860 C.3   121  ARG121      0.0334
     53  CG        45.9500   70.8140   44.0610 C.3   121  ARG121      0.0492
     54  CD        45.5140   72.2100   43.6090 C.3   121  ARG121      0.2205
     55  NE        46.6570   73.1250   43.5010 N.pl3 121  ARG121     -0.0865
     56  CZ        47.7130   72.9420   42.7060 C.cat 121  ARG121      0.5346
     57  NH1       47.7920   71.8700   41.9260 N.pl3 121  ARG121      0.1354
     58  NH2       48.7000   73.8320   42.6950 N.pl3 121  ARG121      0.1354
     59  N         41.2390   67.3650   47.6010 N.3   123  PRO123     -0.2116
     60  CA        39.8720   67.8230   47.3500 C.3   123  PRO123      0.1372
     61  C         39.1340   68.3190   48.5790 C.2   123  PRO123      0.2244
     62  O         39.5830   68.1430   49.7150 O.2   123  PRO123     -0.2868
     63  CB        39.2060   66.5940   46.7530 C.3   123  PRO123      0.0268
     64  CG        39.8650   65.4910   47.5140 C.3   123  PRO123      0.0207
     65  CD        41.3220   65.9020   47.4520 C.3   123  PRO123      0.0892
     66  N         35.5970   67.6660   49.8390 N.3   125  LEU125     -0.1245
     67  CA        34.3760   66.8920   49.6730 C.3   125  LEU125      0.1561
     68  C         33.4770   66.9660   50.8990 C.2   125  LEU125      0.2260
     69  O         33.8050   66.4250   51.9580 O.2   125  LEU125     -0.2867
     70  CB        34.7200   65.4320   49.3720 C.3   125  LEU125      0.0270
     71  CG        35.4570   65.1540   48.0570 C.3   125  LEU125      0.0019
     72  CD1       36.0190   63.7410   48.0680 C.3   125  LEU125      0.0001
     73  CD2       34.5070   65.3500   46.8840 C.3   125  LEU125      0.0001
     74  N         31.0240   45.0110   40.9250 N.3   151  GLN151     -0.1245
     75  CA        30.6540   46.2950   41.5260 C.3   151  GLN151      0.1566
     76  C         29.7180   46.1340   42.7370 C.2   151  GLN151      0.2260
     77  O         28.9890   45.1450   42.8510 O.2   151  GLN151     -0.2867
     78  CB        29.9980   47.2140   40.4770 C.3   151  GLN151      0.0367
     79  CG        28.8990   46.5730   39.6390 C.3   151  GLN151      0.0905
     80  CD        28.4080   47.4770   38.5000 C.2   151  GLN151      0.2608
     81  OE1       29.1930   48.1810   37.8630 O.2   151  GLN151     -0.2717
     82  NE2       27.1100   47.4410   38.2320 N.am  151  GLN151     -0.0878
     83  N         27.8320   53.7660   43.5730 N.3   192  MET192     -0.1245
     84  CA        28.2650   52.4470   43.1170 C.3   192  MET192      0.1570
     85  C         29.7690   52.4650   42.8980 C.2   192  MET192      0.2261
     86  O         30.3120   53.4690   42.4420 O.2   192  MET192     -0.2867
     87  CB        27.5490   52.0650   41.8150 C.3   192  MET192      0.0387
     88  CG        27.7730   50.6160   41.3920 C.3   192  MET192      0.0595
     89  SD        26.8620   50.1700   39.8920 S.3   192  MET192     -0.1393
     90  CE        25.2000   50.0700   40.5600 C.3   192  MET192      0.0692
     91  N         33.6230   50.0080   41.9950 N.3   194  SER194     -0.1217
     92  CA        34.2300   48.7900   41.4900 C.3   194  SER194      0.1889
     93  C         34.8220   48.0030   42.6660 C.2   194  SER194      0.2288
     94  O         35.6110   48.5270   43.4580 O.2   194  SER194     -0.2866
     95  CB        35.3220   49.1070   40.4560 C.3   194  SER194      0.2089
     96  OG        36.5830   49.3070   41.0690 O.3   194  SER194     -0.2183
     97  N         38.8290   47.8220   43.2220 N.3   197  TYR197     -0.1241
     98  CA        39.5770   48.8720   43.8840 C.3   197  TYR197      0.1605
     99  C         39.4660   48.7150   45.3910 C.2   197  TYR197      0.2264
    100  O         40.4450   48.8710   46.1170 O.2   197  TYR197     -0.2867
    101  CB        39.0790   50.2510   43.4620 C.3   197  TYR197      0.0534
    102  CG        39.7690   50.7700   42.2230 C.ar  197  TYR197     -0.0201
    103  CD1       39.3360   50.3990   40.9540 C.ar  197  TYR197     -0.0009
    104  CD2       40.8740   51.6140   42.3240 C.ar  197  TYR197     -0.0009
    105  CE1       39.9820   50.8600   39.8150 C.ar  197  TYR197      0.0417
    106  CE2       41.5300   52.0780   41.1910 C.ar  197  TYR197      0.0417
    107  CZ        41.0750   51.7000   39.9400 C.ar  197  TYR197      0.1957
    108  OH        41.6940   52.1780   38.8120 O.3   197  TYR197     -0.2866
    109  N         26.3000   59.2540   44.0230 N.3   218  ASN218     -0.1225
    110  CA        26.9670   59.3270   42.7310 C.3   218  ASN218      0.1785
    111  C         28.1770   60.2460   42.8070 C.2   218  ASN218      0.2597
    112  O         28.4750   60.9960   41.8780 O.2   218  ASN218     -0.2718
    113  CB        26.0050   59.7920   41.6490 C.3   218  ASN218      0.1169
    114  CG        24.9870   58.7310   41.2970 C.2   218  ASN218      0.2627
    115  OD1       25.3400   57.5930   40.9730 O.2   218  ASN218     -0.2716
    116  ND2       23.7160   59.0940   41.3560 N.am  218  ASN218     -0.0877
    117  N         28.8740   60.1580   43.9380 N.am  219  TYR219     -0.1963
    118  CA        30.0690   60.9440   44.2050 C.3   219  TYR219      0.1756
    119  C         31.1820   60.0210   44.6470 C.2   219  TYR219      0.2461
    120  O         30.9370   58.8790   45.0320 O.2   219  TYR219     -0.2730
    121  CB        29.8130   61.9480   45.3230 C.3   219  TYR219      0.0574
    122  CG        29.7890   63.3810   44.8590 C.ar  219  TYR219     -0.0198
    123  CD1       28.8080   63.8270   43.9780 C.ar  219  TYR219     -0.0009
    124  CD2       30.7390   64.2970   45.3110 C.ar  219  TYR219     -0.0009
    125  CE1       28.7670   65.1470   43.5580 C.ar  219  TYR219      0.0417
    126  CE2       30.7070   65.6210   44.8980 C.ar  219  TYR219      0.0417
    127  CZ        29.7150   66.0410   44.0200 C.ar  219  TYR219      0.1957
    128  OH        29.6600   67.3560   43.6030 O.3   219  TYR219     -0.2866
    129  N         32.4270   60.5030   44.5990 N.am  220  PRO220     -0.2727
    130  CA        33.5560   59.6710   45.0210 C.3   220  PRO220      0.1402
    131  C         33.3640   59.3300   46.5010 C.2   220  PRO220      0.2269
    132  O         32.7250   60.0950   47.2270 O.2   220  PRO220     -0.2865
    133  CB        34.7590   60.5930   44.8090 C.3   220  PRO220      0.0296
    134  CG        34.3040   61.5260   43.7280 C.3   220  PRO220      0.0237
    135  CD        32.8890   61.8160   44.1170 C.3   220  PRO220      0.0939
    136  N         40.4460   57.6770   48.0680 N.3   237  ILE237     -0.1231
    137  CA        39.2770   58.3460   47.5090 C.3   237  ILE237      0.1692
    138  C         39.0400   57.6840   46.1610 C.2   237  ILE237      0.2592
    139  O         39.9070   57.7090   45.2870 O.2   237  ILE237     -0.2718
    140  CB        39.5120   59.8430   47.2910 C.3   237  ILE237      0.0266
    141  CG1       39.8190   60.5240   48.6300 C.3   237  ILE237      0.0019
    142  CG2       38.2800   60.4580   46.6190 C.3   237  ILE237      0.0020
    143  CD1       39.9180   62.0390   48.5510 C.3   237  ILE237      0.0001
    144  N         37.8680   57.0870   45.9970 N.am  238  LEU238     -0.1966
    145  CA        37.5440   56.3760   44.7700 C.3   238  LEU238      0.1728
    146  C         36.3860   56.9840   43.9810 C.2   238  LEU238      0.2616
    147  O         35.3390   57.3190   44.5420 O.2   238  LEU238     -0.2715
    148  CB        37.2190   54.9170   45.1090 C.3   238  LEU238      0.0311
    149  CG        36.8490   53.9870   43.9520 C.3   238  LEU238      0.0022
    150  CD1       38.0490   53.8680   42.9990 C.3   238  LEU238      0.0001
    151  CD2       36.4320   52.6150   44.4910 C.3   238  LEU238      0.0001
    152  N         36.5840   57.1210   42.6720 N.am  239  ALA239     -0.1964
    153  CA        35.5460   57.6540   41.7930 C.3   239  ALA239      0.1713
    154  C         34.4490   56.5950   41.6770 C.2   239  ALA239      0.2458
    155  O         34.7110   55.3910   41.7540 O.2   239  ALA239     -0.2730
    156  CB        36.1220   57.9660   40.4140 C.3   239  ALA239      0.0333
    157  N         33.2040   57.0330   41.4750 N.am  240  PRO240     -0.2716
    158  CA        32.0720   56.1210   41.3570 C.3   240  PRO240      0.1536
    159  C         31.8070   55.6140   39.9580 C.2   240  PRO240      0.2598
    160  O         32.3030   56.1650   38.9750 O.2   240  PRO240     -0.2715
    161  CB        30.9190   56.9720   41.8510 C.3   240  PRO240      0.0310
    162  CG        31.2390   58.2810   41.2200 C.3   240  PRO240      0.0237
    163  CD        32.7370   58.4310   41.4870 C.3   240  PRO240      0.0939
    164  N         31.0120   54.5500   39.8940 N.am  241  ARG241     -0.1964
    165  CA        30.5860   53.9700   38.6280 C.3   241  ARG241      0.1729
    166  C         29.2330   54.6110   38.3450 C.2   241  ARG241      0.2616
    167  O         28.4440   54.8260   39.2650 O.2   241  ARG241     -0.2715
    168  CB        30.4520   52.4510   38.7320 C.3   241  ARG241      0.0348
    169  CG        31.7420   51.7150   38.4250 C.3   241  ARG241      0.0492
    170  CD        31.4950   50.2300   38.2340 C.3   241  ARG241      0.2205
    171  NE        32.6730   49.5600   37.6880 N.pl3 241  ARG241     -0.0865
    172  CZ        32.7630   48.2490   37.4910 C.cat 241  ARG241      0.5346
    173  NH1       31.7420   47.4570   37.7970 N.pl3 241  ARG241      0.1354
    174  NH2       33.8740   47.7320   36.9820 N.pl3 241  ARG241      0.1354
    175  N         28.9730   54.9260   37.0800 N.am  242  ILE242     -0.1963
    176  CA        27.7270   55.5840   36.7020 C.3   242  ILE242      0.1727
    177  C         26.8410   54.7780   35.7600 C.2   242  ILE242      0.2616
    178  O         27.2820   54.2770   34.7230 O.2   242  ILE242     -0.2715
    179  CB        28.0180   56.9620   36.0570 C.3   242  ILE242      0.0290
    180  CG1       28.7620   57.8590   37.0540 C.3   242  ILE242      0.0022
    181  CG2       26.7240   57.6130   35.5970 C.3   242  ILE242      0.0023
    182  CD1       27.9870   58.1650   38.3090 C.3   242  ILE242      0.0001
    183  N         25.5750   54.6660   36.1380 N.am  243  GLU243     -0.1963
    184  CA        24.6010   53.9360   35.3450 C.3   243  GLU243      0.1733
    185  C         24.0390   54.9150   34.3170 C.2   243  GLU243      0.2617
    186  O         23.8970   56.1030   34.6060 O.2   243  GLU243     -0.2715
    187  CB        23.4790   53.4030   36.2480 C.3   243  GLU243      0.0429
    188  CG        23.9690   52.6990   37.5210 C.3   243  GLU243      0.1163
    189  CD        24.2000   53.6540   38.7100 C.2   243  GLU243      0.3649
    190  OE1       24.8500   54.7160   38.5290 O.co2 243  GLU243     -0.2457
    191  OE2       23.7330   53.3290   39.8330 O.co2 243  GLU243     -0.2457
    192  N         23.7410   54.4230   33.1170 N.am  244  SER244     -0.1936
    193  CA        23.1970   55.2680   32.0560 C.3   244  SER244      0.2055
    194  C         22.5440   54.4180   30.9740 C.2   244  SER244      0.2642
    195  O         22.1550   53.2800   31.2220 O.2   244  SER244     -0.2714
    196  CB        24.3010   56.1300   31.4300 C.3   244  SER244      0.2130
    197  OG        25.2280   55.3330   30.7130 O.3   244  SER244     -0.2179
    198  N         22.4300   54.9750   29.7730 N.am  245  GLU245     -0.1976
    199  CA        21.8230   54.2620   28.6570 C.3   245  GLU245      0.1602
    200  C         22.6820   54.3890   27.4010 C.2   245  GLU245      0.2287
    201  O         23.7440   55.0360   27.4840 O.2   245  GLU245     -0.2864
    202  CB        20.4150   54.8090   28.3920 C.3   245  GLU245      0.0415
    203  CG        19.5690   54.9720   29.6610 C.3   245  GLU245      0.1163
    204  CD        18.0740   55.0850   29.3790 C.2   245  GLU245      0.3649
    205  OE1       17.6760   55.9450   28.5600 O.co2 245  GLU245     -0.2457
    206  OE2       17.2980   54.3120   29.9840 O.co2 245  GLU245     -0.2457
@<TRIPOS>BOND
     1   200   201    2
     2   200   199    1
     3   202   199    1
     4   202   203    1
     5   205   204   ar
     6   199   198    1
     7   204   203    1
     8   204   206   ar
     9   198   194   am
    10   197   196    1
    11   194   195    2
    12   194   193    1
    13   196   193    1
    14   193   192    1
    15   192   185   am
    16   185   186    2
    17   185   184    1
    18   178   177    2
    19    11    10    2
    20    19    18    2
    21   184   183    1
    22   184   187    1
    23     9    10    1
    24     9     8    1
    25     9    12    1
    26   181   179    1
    27    10    13   am
    28   177   183   am
    29   177   176    1
    30    17    18    1
    31    17    14    1
    32    18    20   am
    33   179   176    1
    34   179   180    1
    35   187   188    1
    36    13    14    1
    37   176   175    1
    38   174   172    1
    39    14    15    1
    40   180   182    1
    41   175   166   am
    42    27    25    1
    43   172   171    2
    44   172   173    1
    45    16    15    2
    46   188   189    1
    47   171   170    1
    48    15    21   am
    49    81    80    2
    50    82    80   am
    51   170   169    1
    52   166   165    1
    53   166   167    2
    54   169   168    1
    55    80    79    1
    56    21    22    1
    57   190   189   ar
    58   165   168    1
    59   165   164    1
    60   189   191   ar
    61    25    22    1
    62    25    26    1
    63   108   107    1
    64   160   159    2
    65    22    23    1
    66    79    78    1
    67   105   107   ar
    68   105   103   ar
    69    89    90    1
    70    89    88    1
    71   164   159   am
    72   107   106   ar
    73   159   158    1
    74     4     3    2
    75     6     5    1
    76   156   153    1
    77    95    96    1
    78    95    92    1
    79    78    75    1
    80     3     2    1
    81    23    28   am
    82    23    24    2
    83     5     2    1
    84     5     7    1
    85    74    75    1
    86   103   102   ar
    87   115   114    2
    88   106   104   ar
    89   162   163    1
    90   162   161    1
    91    28    29    1
    92   114   116   am
    93   114   113    1
    94   158   157    1
    95   158   161    1
    96    88    87    1
    97   157   163    1
    98   157   154   am
    99    92    91    1
   100    92    93    1
   101    75    76    1
   102     2     1    1
   103   113   110    1
   104   154   155    2
   105   154   153    1
   106   153   152    1
   107    87    84    1
   108   112   111    2
   109    57    56    1
   110   102   104   ar
   111   102   101    1
   112    31    30    2
   113    86    85    2
   114    29    30    1
   115    29    32    1
   116    93    94    2
   117   152   146   am
   118    58    56    1
   119    56    55    2
   120    45    42    1
   121    45    46    1
   122   110   111    1
   123   110   109    1
   124    76    77    2
   125    42    41    1
   126    42    43    1
   127   111   117   am
   128    41    47    1
   129    85    84    1
   130   150   149    1
   131    30    33   am
   132    84    83    1
   133    47    46    1
   134    97    98    1
   135   101    98    1
   136    55    54    1
   137   125   123   ar
   138   125   127   ar
   139   128   127    1
   140    54    53    1
   141   134   135    1
   142   134   133    1
   143    98    99    1
   144   117   118    1
   145   149   151    1
   146   149   148    1
   147   123   122   ar
   148   146   147    2
   149   146   145    1
   150    43    48   am
   151    43    44    2
   152   127   126   ar
   153    48    49    1
   154    53    52    1
   155   135   129    1
   156   118   119    1
   157   118   121    1
   158    33    34    1
   159   129   119   am
   160   129   130    1
   161   119   120    2
   162    52    49    1
   163   145   148    1
   164   145   144    1
   165   133   130    1
   166   122   124   ar
   167   122   121    1
   168   126   124   ar
   169    34    37    1
   170    34    35    1
   171    37    38    1
   172   130   131    1
   173    49    50    1
   174   139   138    2
   175    39    38    1
   176    39    40    1
   177    99   100    2
   178    51    50    2
   179   144   138   am
   180   138   137    1
   181    35    36    2
   182   131   132    2
   183   142   140    1
   184    63    60    1
   185    63    64    1
   186    73    71    1
   187   140   137    1
   188   140   141    1
   189    60    59    1
   190    60    61    1
   191    65    64    1
   192    65    59    1
   193   137   136    1
   194    71    72    1
   195    71    70    1
   196   143   141    1
   197    61    62    2
   198    70    67    1
   199    67    66    1
   200    67    68    1
   201    68    69    2
