@<TRIPOS>MOLECULE
tmp/1rxpA00.pdb
 200 201 0 0 0
SMALL
GASTEIGER

@<TRIPOS>ATOM
      1  N         -5.5790   16.1430   36.1840 N.3    22  TYR22      -0.1241
      2  CA        -6.4060   15.7610   35.0460 C.3    22  TYR22       0.1605
      3  C         -5.4640   15.0200   34.0910 C.2    22  TYR22       0.2264
      4  O         -4.2440   15.2000   34.1650 O.2    22  TYR22      -0.2867
      5  CB        -6.9500   17.0290   34.3540 C.3    22  TYR22       0.0534
      6  CG        -5.8670   18.0740   34.1070 C.ar   22  TYR22      -0.0201
      7  CD1       -5.0250   17.9930   32.9940 C.ar   22  TYR22      -0.0009
      8  CD2       -5.6230   19.0830   35.0410 C.ar   22  TYR22      -0.0009
      9  CE1       -3.9690   18.8730   32.8260 C.ar   22  TYR22       0.0417
     10  CE2       -4.5640   19.9690   34.8810 C.ar   22  TYR22       0.0417
     11  CZ        -3.7390   19.8560   33.7730 C.ar   22  TYR22       0.1957
     12  OH        -2.6730   20.7290   33.6260 O.3    22  TYR22      -0.2866
     13  N         -3.4360   14.5090   30.8750 N.3    24  PHE24      -0.1227
     14  CA        -2.9320   15.4430   29.8600 C.3    24  PHE24       0.1736
     15  C         -2.0760   14.7710   28.7650 C.2    24  PHE24       0.2595
     16  O         -1.7820   15.3780   27.7330 O.2    24  PHE24      -0.2718
     17  CB        -2.1560   16.5950   30.5260 C.3    24  PHE24       0.0547
     18  CG        -0.8530   16.1790   31.1420 C.ar   24  PHE24      -0.0202
     19  CD1        0.3270   16.1800   30.3870 C.ar   24  PHE24      -0.0042
     20  CD2       -0.7940   15.7710   32.4650 C.ar   24  PHE24      -0.0042
     21  CE1        1.5420   15.7740   30.9440 C.ar   24  PHE24      -0.0003
     22  CE2        0.4180   15.3620   33.0290 C.ar   24  PHE24      -0.0003
     23  CZ         1.5890   15.3660   32.2570 C.ar   24  PHE24      -0.0000
     24  N         -1.6920   13.5200   28.9910 N.am   25  CYS25      -0.1970
     25  CA        -0.8610   12.7890   28.0410 C.3    25  CYS25       0.1712
     26  C         -0.8180   11.3070   28.3880 C.2    25  CYS25       0.2296
     27  O         -1.1490   10.9100   29.5170 O.2    25  CYS25      -0.2864
     28  CB         0.5710   13.3400   28.0720 C.3    25  CYS25       0.0983
     29  SG         0.8660   14.7270   26.9620 S.3    25  CYS25      -0.0798
     30  N          7.3760   16.6620   24.7020 N.3    40  HIS40      -0.1226
     31  CA         6.4600   17.7990   24.6890 C.3    40  HIS40       0.1752
     32  C          5.3890   17.6640   25.7700 C.2    40  HIS40       0.2596
     33  O          4.6090   18.5860   26.0000 O.2    40  HIS40      -0.2718
     34  CB         5.8520   18.0360   23.2900 C.3    40  HIS40       0.0759
     35  CG         4.6660   17.1800   22.9640 C.ar   40  HIS40       0.0818
     36  ND1        4.7110   16.1700   22.0260 N.ar   40  HIS40      -0.2268
     37  CD2        3.3810   17.2300   23.4000 C.ar   40  HIS40       0.1154
     38  CE1        3.5120   15.6290   21.8960 C.ar   40  HIS40       0.1986
     39  NE2        2.6880   16.2560   22.7170 N.ar   40  HIS40      -0.2212
     40  N          5.3620   16.5110   26.4330 N.am   41  CYS41      -0.1956
     41  CA         4.4090   16.2600   27.5060 C.3    41  CYS41       0.1843
     42  C          5.0090   16.6510   28.8540 C.2    41  CYS41       0.2625
     43  O          4.3470   16.5580   29.8800 O.2    41  CYS41      -0.2714
     44  CB         4.0470   14.7750   27.5630 C.3    41  CYS41       0.0997
     45  SG         2.9880   14.2280   26.2390 S.3    41  CYS41      -0.0797
     46  N          6.2690   17.0690   28.8610 N.am   42  TYR42      -0.1960
     47  CA         6.9220   17.4340   30.1040 C.3    42  TYR42       0.1771
     48  C          6.2060   18.4960   30.9300 C.2    42  TYR42       0.2619
     49  O          5.7260   19.5000   30.4020 O.2    42  TYR42      -0.2715
     50  CB         8.3680   17.8950   29.8500 C.3    42  TYR42       0.0574
     51  CG         8.9650   18.6160   31.0430 C.ar   42  TYR42      -0.0198
     52  CD1        9.4860   17.9010   32.1330 C.ar   42  TYR42      -0.0009
     53  CD2        8.8600   20.0040   31.1560 C.ar   42  TYR42      -0.0009
     54  CE1        9.8650   18.5630   33.3170 C.ar   42  TYR42       0.0417
     55  CE2        9.2310   20.6630   32.3220 C.ar   42  TYR42       0.0417
     56  CZ         9.7250   19.9400   33.3940 C.ar   42  TYR42       0.1957
     57  OH        10.0300   20.6270   34.5430 O.3    42  TYR42      -0.2866
     58  N          6.1640   18.2620   32.2390 N.am   43  LYS43      -0.1977
     59  CA         5.6200   19.2130   33.1990 C.3    43  LYS43       0.1596
     60  C          5.9800   18.6770   34.5690 C.2    43  LYS43       0.2287
     61  O          6.2370   17.4770   34.7180 O.2    43  LYS43      -0.2864
     62  CB         4.1060   19.3950   33.0570 C.3    43  LYS43       0.0298
     63  CG         3.2720   18.2660   33.5830 C.3    43  LYS43       0.0038
     64  CD         1.8540   18.7300   33.8550 C.3    43  LYS43       0.0206
     65  CE         1.1670   19.1870   32.5980 C.3    43  LYS43       0.1093
     66  NZ        -0.2510   19.5890   32.8700 N.3    43  LYS43      -0.1314
     67  N         10.1270   19.5100   17.0930 N.3    81  LEU81      -0.1245
     68  CA         9.7020   18.2900   17.7600 C.3    81  LEU81       0.1561
     69  C         10.6590   17.1330   17.4860 C.2    81  LEU81       0.2260
     70  O         10.3110   15.9600   17.6560 O.2    81  LEU81      -0.2867
     71  CB         8.2500   17.9170   17.4310 C.3    81  LEU81       0.0270
     72  CG         7.1490   18.7590   18.1030 C.3    81  LEU81       0.0019
     73  CD1        5.8650   17.9240   18.1640 C.3    81  LEU81       0.0001
     74  CD2        7.5380   19.1580   19.5350 C.3    81  LEU81       0.0001
     75  N         -6.7980    8.2450   13.1770 N.3   171  ASP171     -0.1225
     76  CA        -5.5510    8.8700   13.5920 C.3   171  ASP171      0.1805
     77  C         -5.5640    9.0630   15.1110 C.2   171  ASP171      0.2598
     78  O         -6.5690    8.7890   15.7790 O.2   171  ASP171     -0.2718
     79  CB        -5.5050   10.2620   12.9160 C.3   171  ASP171      0.1424
     80  CG        -4.1230   10.9170   12.9250 C.2   171  ASP171      0.3668
     81  OD1       -3.1230   10.2830   13.3210 O.co2 171  ASP171     -0.2456
     82  OD2       -4.0410   12.1010   12.5200 O.co2 171  ASP171     -0.2456
     83  N         -4.4210    9.4450   15.6670 N.am  172  SER172     -0.1938
     84  CA        -4.3540    9.7820   17.0790 C.3   172  SER172      0.2055
     85  C         -4.7440   11.2770   17.0970 C.2   172  SER172      0.2643
     86  O         -4.8830   11.9000   16.0360 O.2   172  SER172     -0.2714
     87  CB        -2.9500    9.5380   17.6540 C.3   172  SER172      0.2130
     88  OG        -1.9290   10.0820   16.8350 O.3   172  SER172     -0.2179
     89  N         -4.8390   11.8730   18.2760 N.am  173  CYS173     -0.1953
     90  CA        -5.2710   13.2590   18.3540 C.3   173  CYS173      0.1843
     91  C         -4.9020   13.8500   19.7170 C.2   173  CYS173      0.2625
     92  O         -4.2520   13.1890   20.5380 O.2   173  CYS173     -0.2714
     93  CB        -6.7870   13.2820   18.1450 C.3   173  CYS173      0.0997
     94  SG        -7.5580   14.8720   17.7700 S.3   173  CYS173     -0.0797
     95  N         -5.3400   15.0820   19.9630 N.am  174  GLN174     -0.1963
     96  CA        -5.0750   15.7810   21.2170 C.3   174  GLN174      0.1733
     97  C         -5.4630   14.8960   22.3980 C.2   174  GLN174      0.2617
     98  O         -6.5640   14.3710   22.4430 O.2   174  GLN174     -0.2715
     99  CB        -5.8630   17.0950   21.2450 C.3   174  GLN174      0.0408
    100  CG        -5.6460   17.9560   22.4840 C.3   174  GLN174      0.0908
    101  CD        -4.2060   18.4000   22.6460 C.2   174  GLN174      0.2608
    102  OE1       -3.3940   17.6960   23.2590 O.2   174  GLN174     -0.2717
    103  NE2       -3.8690   19.5550   22.0760 N.am  174  GLN174     -0.0878
    104  N         -4.5510   14.7460   23.3530 N.am  175  GLY175     -0.1940
    105  CA        -4.8210   13.8930   24.4950 C.3   175  GLY175      0.2014
    106  C         -4.1660   12.5220   24.3580 C.2   175  GLY175      0.2639
    107  O         -4.0580   11.7990   25.3540 O.2   175  GLY175     -0.2714
    108  N         -3.7550   12.1530   23.1410 N.am  176  ASP176     -0.1957
    109  CA        -3.0940   10.8620   22.8910 C.3   176  ASP176      0.1840
    110  C         -1.5870   10.9810   22.9740 C.2   176  ASP176      0.2622
    111  O         -0.8820    9.9760   23.0770 O.2   176  ASP176     -0.2715
    112  CB        -3.4450   10.3020   21.5080 C.3   176  ASP176      0.1450
    113  CG        -4.8890    9.8690   21.3960 C.2   176  ASP176      0.3671
    114  OD1       -5.4260    9.3050   22.3690 O.co2 176  ASP176     -0.2456
    115  OD2       -5.4810   10.0950   20.3230 O.co2 176  ASP176     -0.2456
    116  N         -1.1000   12.2140   22.8730 N.am  177  SER177     -0.1950
    117  CA         0.3300   12.4890   22.9300 C.3   177  SER177      0.1924
    118  C          1.1140   11.8190   24.0330 C.2   177  SER177      0.2314
    119  O          0.6610   11.7930   25.1730 O.2   177  SER177     -0.2863
    120  CB         0.6540   13.9780   22.9360 C.3   177  SER177      0.2116
    121  OG         0.2910   14.5570   21.7120 O.3   177  SER177     -0.2180
    122  N          3.2780    8.8200   20.3530 N.3   191  VAL191     -0.1231
    123  CA         2.3600    9.7700   19.7130 C.3   191  VAL191      0.1692
    124  C          2.9990   11.1510   19.8700 C.2   191  VAL191      0.2593
    125  O          3.1790   11.6400   20.9880 O.2   191  VAL191     -0.2718
    126  CB         0.9650    9.7040   20.3700 C.3   191  VAL191      0.0266
    127  CG1        0.0130   10.7160   19.7210 C.3   191  VAL191      0.0020
    128  CG2        0.4150    8.2730   20.2570 C.3   191  VAL191      0.0020
    129  N          3.3730   11.7520   18.7390 N.am  192  SER192     -0.1938
    130  CA         4.0880   13.0190   18.7540 C.3   192  SER192      0.2055
    131  C          3.3460   14.2260   18.2060 C.2   192  SER192      0.2643
    132  O          3.0340   15.1500   18.9610 O.2   192  SER192     -0.2714
    133  CB         5.4380   12.8320   18.0430 C.3   192  SER192      0.2130
    134  OG         6.2780   13.9610   18.1590 O.3   192  SER192     -0.2179
    135  N          3.0790   14.2420   16.9030 N.am  193  TRP193     -0.1959
    136  CA         2.3960   15.3800   16.3050 C.3   193  TRP193      0.1771
    137  C          1.7100   15.0560   14.9880 C.2   193  TRP193      0.2620
    138  O          1.7130   13.9110   14.5490 O.2   193  TRP193     -0.2715
    139  CB         3.3810   16.5380   16.0970 C.3   193  TRP193      0.0590
    140  CG         4.5120   16.2470   15.1170 C.ar  193  TRP193      0.0006
    141  CD1        5.6840   15.6020   15.3870 C.ar  193  TRP193      0.0946
    142  CD2        4.5930   16.6770   13.7530 C.ar  193  TRP193      0.0152
    143  NE1        6.5010   15.6150   14.2800 N.ar  193  TRP193     -0.2442
    144  CE2        5.8630   16.2680   13.2610 C.ar  193  TRP193      0.0810
    145  CE3        3.7300   17.3720   12.8890 C.ar  193  TRP193      0.0012
    146  CZ2        6.2850   16.5340   11.9580 C.ar  193  TRP193      0.0191
    147  CZ3        4.1490   17.6380   11.5980 C.ar  193  TRP193      0.0001
    148  CH2        5.4190   17.2190   11.1450 C.ar  193  TRP193      0.0015
    149  N          1.0900   16.0780   14.4000 N.am  194  GLY194     -0.1940
    150  CA         0.3940   15.9440   13.1260 C.3   194  GLY194      0.2014
    151  C         -0.3450   17.2460   12.8680 C.2   194  GLY194      0.2640
    152  O         -0.3150   18.1420   13.7170 O.2   194  GLY194     -0.2714
    153  N         -0.9520   17.3970   11.7000 N.am  195  SER195     -0.1935
    154  CA        -1.6970   18.6160   11.4150 C.3   195  SER195      0.2055
    155  C         -3.1690   18.3310   11.6590 C.2   195  SER195      0.2644
    156  O         -3.8130   17.6290   10.8750 O.2   195  SER195     -0.2714
    157  CB        -1.4700   19.0770    9.9720 C.3   195  SER195      0.2130
    158  OG        -0.1610   19.6010    9.8270 O.3   195  SER195     -0.2179
    159  N         -3.7010   18.8660   12.7500 N.am  196  GLY196     -0.1939
    160  CA        -5.0850   18.5880   13.0880 C.3   196  GLY196      0.2014
    161  C         -5.1100   17.0930   13.3850 C.2   196  GLY196      0.2639
    162  O         -4.0890   16.5270   13.7960 O.2   196  GLY196     -0.2714
    163  N         -6.2320   16.4320   13.1300 N.am  197  CYS197     -0.1967
    164  CA        -6.3220   15.0050   13.3900 C.3   197  CYS197      0.1712
    165  C         -7.1630   14.3470   12.3280 C.2   197  CYS197      0.2296
    166  O         -8.2200   14.8540   11.9540 O.2   197  CYS197     -0.2864
    167  CB        -6.9670   14.7450   14.7560 C.3   197  CYS197      0.0983
    168  SG        -6.1840   15.5780   16.1340 S.3   197  CYS197     -0.0798
    169  N         -2.6540   14.0330    5.9670 N.3   202  LYS202     -0.1245
    170  CA        -1.9420   14.5150    7.1460 C.3   202  LYS202      0.1561
    171  C         -1.9620   13.4160    8.1970 C.2   202  LYS202      0.2260
    172  O         -2.6440   13.5200    9.2080 O.2   202  LYS202     -0.2867
    173  CB        -2.5870   15.7940    7.6860 C.3   202  LYS202      0.0271
    174  CG        -2.4100   17.0080    6.7670 C.3   202  LYS202      0.0035
    175  CD        -0.9360   17.3670    6.5890 C.3   202  LYS202      0.0206
    176  CE        -0.7620   18.4480    5.5320 C.3   202  LYS202      0.1093
    177  NZ         0.6520   18.9010    5.4070 N.3   202  LYS202     -0.1314
    178  N         -0.5690   10.7540   11.2300 N.3   204  GLY204     -0.1210
    179  CA         0.0860   11.0090   12.4970 C.3   204  GLY204      0.1956
    180  C          1.5920   10.8370   12.3850 C.2   204  GLY204      0.2612
    181  O          2.0750    9.9970   11.6140 O.2   204  GLY204     -0.2717
    182  N          2.3320   11.6590   13.1190 N.am  205  VAL205     -0.1965
    183  CA         3.7900   11.5910   13.1390 C.3   205  VAL205      0.1727
    184  C          4.1900   11.0870   14.5330 C.2   205  VAL205      0.2616
    185  O          3.7140   11.5970   15.5600 O.2   205  VAL205     -0.2715
    186  CB         4.4340   12.9440   12.8220 C.3   205  VAL205      0.0290
    187  CG1        5.9280   12.7610   12.6090 C.3   205  VAL205      0.0023
    188  CG2        3.8050   13.5280   11.5770 C.3   205  VAL205      0.0023
    189  N          5.0780   10.0920   14.5530 N.am  206  TYR206     -0.1974
    190  CA         5.4940    9.4220   15.7850 C.3   206  TYR206      0.1639
    191  C          6.9990    9.4160   16.0050 C.2   206  TYR206      0.2290
    192  O          7.7790    9.3420   15.0440 O.2   206  TYR206     -0.2864
    193  CB         4.9760    7.9730   15.7330 C.3   206  TYR206      0.0560
    194  CG         3.4750    7.9180   15.5630 C.ar  206  TYR206     -0.0198
    195  CD1        2.6450    7.9580   16.6790 C.ar  206  TYR206     -0.0009
    196  CD2        2.8790    7.9450   14.2910 C.ar  206  TYR206     -0.0009
    197  CE1        1.2660    8.0350   16.5580 C.ar  206  TYR206      0.0417
    198  CE2        1.4780    8.0300   14.1530 C.ar  206  TYR206      0.0417
    199  CZ         0.6870    8.0740   15.3050 C.ar  206  TYR206      0.1957
    200  OH        -0.6810    8.1520   15.2380 O.3   206  TYR206     -0.2866
@<TRIPOS>BOND
     1   177   176    1
     2   176   175    1
     3   169   170    1
     4   175   174    1
     5   174   173    1
     6   170   173    1
     7   170   171    1
     8   171   172    2
     9   158   157    1
    10   157   154    1
    11   156   155    2
    12   148   147   ar
    13   148   146   ar
    14   178   179    1
    15   154   155    1
    16   154   153    1
    17   188   186    1
    18   147   145   ar
    19   181   180    2
    20   155   159   am
    21   153   151   am
    22   166   165    2
    23   146   144   ar
    24   165   164    1
    25   180   179    1
    26   180   182   am
    27    82    80   ar
    28   187   186    1
    29   159   160    1
    30   186   183    1
    31   151   150    1
    32   151   152    2
    33   145   142   ar
    34    79    80    1
    35    79    76    1
    36    80    81   ar
    37   160   161    1
    38   182   183    1
    39   150   149    1
    40   163   161   am
    41   163   164    1
    42   183   184    1
    43    75    76    1
    44   144   142   ar
    45   144   143   ar
    46   161   162    2
    47   164   167    1
    48    76    77    1
    49   142   140   ar
    50   198   196   ar
    51   198   199   ar
    52   143   141   ar
    53   196   194   ar
    54   149   137   am
    55   184   189   am
    56   184   185    2
    57   138   137    2
    58   189   190    1
    59   167   168    1
    60   137   136    1
    61   192   191    2
    62    77    83   am
    63    77    78    2
    64   140   141   ar
    65   140   139    1
    66   200   199    1
    67   199   197   ar
    68   194   193    1
    69   194   195   ar
    70    83    84    1
    71   193   190    1
    72   190   191    1
    73    86    85    2
    74   139   136    1
    75   168    94    1
    76   136   135    1
    77   197   195   ar
    78    88    87    1
    79   135   131   am
    80    84    85    1
    81    84    87    1
    82    67    68    1
    83    85    89   am
    84    71    68    1
    85    71    72    1
    86    69    70    2
    87    69    68    1
    88    94    93    1
    89   133   134    1
    90   133   130    1
    91    72    73    1
    92    72    74    1
    93    93    90    1
    94   131   130    1
    95   131   132    2
    96    89    90    1
    97    90    91    1
    98   129   130    1
    99   129   124   am
   100   123   124    1
   101   123   122    1
   102   123   126    1
   103    91    95   am
   104    91    92    2
   105   127   126    1
   106   124   125    2
   107    95    96    1
   108   128   126    1
   109   115   113   ar
   110    96    99    1
   111    96    97    1
   112    99   100    1
   113   113   112    1
   114   113   114   ar
   115   112   109    1
   116   121   120    1
   117    38    36   ar
   118    38    39   ar
   119    36    35   ar
   120   103   101   am
   121    97    98    2
   122    97   104   am
   123   100   101    1
   124   101   102    2
   125    39    37   ar
   126   116   117    1
   127   116   110   am
   128   109   110    1
   129   109   108    1
   130   117   120    1
   131   117   118    1
   132    35    34    1
   133    35    37   ar
   134   110   111    2
   135   108   106   am
   136    34    31    1
   137   104   105    1
   138   118   119    2
   139   106   105    1
   140   106   107    2
   141    31    30    1
   142    31    32    1
   143    32    33    2
   144    32    40   am
   145    45    29    1
   146    45    44    1
   147    40    41    1
   148    29    28    1
   149    41    44    1
   150    41    42    1
   151    16    15    2
   152    25    28    1
   153    25    26    1
   154    25    24    1
   155    26    27    2
   156    15    24   am
   157    15    14    1
   158    42    46   am
   159    42    43    2
   160    46    47    1
   161    50    47    1
   162    50    51    1
   163    14    17    1
   164    14    13    1
   165    47    48    1
   166    19    21   ar
   167    19    18   ar
   168    49    48    2
   169    17    18    1
   170    48    58   am
   171    21    23   ar
   172    51    53   ar
   173    51    52   ar
   174    18    20   ar
   175    53    55   ar
   176    52    54   ar
   177    58    59    1
   178    23    22   ar
   179    55    56   ar
   180    20    22   ar
   181    65    66    1
   182    65    64    1
   183     9     7   ar
   184     9    11   ar
   185     7     6   ar
   186    62    59    1
   187    62    63    1
   188    59    60    1
   189    54    56   ar
   190    56    57    1
   191    63    64    1
   192    12    11    1
   193    11    10   ar
   194     3     4    2
   195     3     2    1
   196     6     5    1
   197     6     8   ar
   198     5     2    1
   199    60    61    2
   200    10     8   ar
   201     2     1    1
