@<TRIPOS>MOLECULE
tmp/1rxqD00.pdb
 148 146 0 0 0
SMALL
GASTEIGER

@<TRIPOS>ATOM
      1  N          3.4590   -9.8270  -45.4290 N.3     3  GLU3       -0.1245
      2  CA         4.2070   -8.9140  -44.5590 C.3     3  GLU3        0.1567
      3  C          3.3140   -7.7580  -44.1610 C.2     3  GLU3        0.2260
      4  O          2.3890   -7.3860  -44.8940 O.2     3  GLU3       -0.2867
      5  CB         5.5030   -8.4060  -45.2020 C.3     3  GLU3        0.0388
      6  CG         5.3830   -7.8610  -46.6150 C.3     3  GLU3        0.1160
      7  CD         6.6260   -7.0740  -47.0140 C.2     3  GLU3        0.3649
      8  OE1        7.7530   -7.5960  -46.8010 O.co2   3  GLU3       -0.2457
      9  OE2        6.4780   -5.9330  -47.5270 O.co2   3  GLU3       -0.2457
     10  N         14.6810  -22.2320  -36.2610 N.3    49  TRP49      -0.1241
     11  CA        14.5030  -22.3010  -34.8350 C.3    49  TRP49       0.1605
     12  C         13.5110  -23.3880  -34.4840 C.2    49  TRP49       0.2264
     13  O         12.6320  -23.7150  -35.2690 O.2    49  TRP49      -0.2867
     14  CB        13.9260  -20.9830  -34.3290 C.3    49  TRP49       0.0550
     15  CG        14.9090  -19.8940  -34.2090 C.ar   49  TRP49       0.0003
     16  CD1       16.2670  -19.9810  -34.2620 C.ar   49  TRP49       0.0946
     17  CD2       14.5980  -18.5190  -34.0120 C.ar   49  TRP49       0.0152
     18  NE1       16.8220  -18.7350  -34.0950 N.ar   49  TRP49      -0.2442
     19  CE2       15.8150  -17.8170  -33.9450 C.ar   49  TRP49       0.0810
     20  CE3       13.4010  -17.8060  -33.8920 C.ar   49  TRP49       0.0012
     21  CZ2       15.8750  -16.4360  -33.7600 C.ar   49  TRP49       0.0191
     22  CZ3       13.4580  -16.4230  -33.6950 C.ar   49  TRP49       0.0001
     23  CH2       14.6860  -15.7620  -33.6200 C.ar   49  TRP49       0.0015
     24  N         11.5580  -16.5430  -27.8560 N.3    57  HIS57      -0.1241
     25  CA        11.7490  -15.3610  -28.6860 C.3    57  HIS57       0.1621
     26  C         10.5610  -14.4040  -28.6290 C.2    57  HIS57       0.2264
     27  O         10.7540  -13.1990  -28.5920 O.2    57  HIS57      -0.2867
     28  CB        12.0010  -15.7990  -30.1050 C.3    57  HIS57       0.0745
     29  CG        11.7770  -14.7350  -31.1390 C.ar   57  HIS57       0.0817
     30  ND1       12.7090  -13.7490  -31.3960 N.ar   57  HIS57      -0.2268
     31  CD2       10.7520  -14.5190  -31.9870 C.ar   57  HIS57       0.1154
     32  CE1       12.2640  -12.9750  -32.3700 C.ar   57  HIS57       0.1986
     33  NE2       11.0890  -13.4350  -32.7540 N.ar   57  HIS57      -0.2212
     34  N         11.1570  -10.6790  -27.6640 N.3    61  SER61      -0.1217
     35  CA        10.7940   -9.6780  -28.6600 C.3    61  SER61       0.1889
     36  C          9.7680   -8.6940  -28.0980 C.2    61  SER61       0.2288
     37  O          9.8940   -7.4560  -28.2530 O.2    61  SER61      -0.2866
     38  CB        10.1820  -10.3760  -29.8790 C.3    61  SER61       0.2089
     39  OG         9.7740   -9.4420  -30.8770 O.3    61  SER61      -0.2183
     40  N         10.1260   -0.2500  -25.9290 N.3    67  ARG67      -0.1245
     41  CA        10.1500    0.7400  -27.0170 C.3    67  ARG67       0.1563
     42  C          8.9200    1.6380  -27.0190 C.2    67  ARG67       0.2260
     43  O          9.0230    2.8290  -27.2760 O.2    67  ARG67      -0.2867
     44  CB        10.3350    0.0510  -28.3500 C.3    67  ARG67       0.0307
     45  CG        11.6610   -0.6550  -28.4550 C.3    67  ARG67       0.0489
     46  CD        11.7980   -1.4730  -29.7240 C.3    67  ARG67       0.2205
     47  NE        13.0840   -2.1330  -29.7310 N.pl3  67  ARG67      -0.0865
     48  CZ        13.4910   -2.9840  -30.6540 C.cat  67  ARG67       0.5346
     49  NH1       12.7220   -3.2870  -31.6910 N.pl3  67  ARG67       0.1354
     50  NH2       14.6870   -3.5400  -30.5290 N.pl3  67  ARG67       0.1354
     51  N         18.8390  -11.0000  -32.1720 N.3    84  GLU84      -0.1245
     52  CA        17.7980  -11.9790  -31.8780 C.3    84  GLU84       0.1567
     53  C         18.2970  -13.4040  -32.0940 C.2    84  GLU84       0.2260
     54  O         17.9050  -14.3390  -31.3790 O.2    84  GLU84      -0.2867
     55  CB        16.5440  -11.6800  -32.7090 C.3    84  GLU84       0.0388
     56  CG        16.3670  -10.1830  -32.9790 C.3    84  GLU84       0.1160
     57  CD        14.9520   -9.7870  -33.3420 C.2    84  GLU84       0.3649
     58  OE1       14.0840  -10.6810  -33.3350 O.co2  84  GLU84      -0.2457
     59  OE2       14.7170   -8.5820  -33.6340 O.co2  84  GLU84      -0.2457
     60  N         14.3970    3.2910  -35.6750 N.3   130  HIS130     -0.1241
     61  CA        15.1460    2.0590  -35.6630 C.3   130  HIS130      0.1621
     62  C         16.4210    2.2810  -36.4510 C.2   130  HIS130      0.2264
     63  O         16.3930    2.4410  -37.6850 O.2   130  HIS130     -0.2867
     64  CB        14.3540    0.8780  -36.2330 C.3   130  HIS130      0.0745
     65  CG        15.0730   -0.4260  -36.0730 C.ar  130  HIS130      0.0817
     66  ND1       15.0410   -1.1480  -34.9000 N.ar  130  HIS130     -0.2268
     67  CD2       15.8960   -1.1030  -36.9070 C.ar  130  HIS130      0.1154
     68  CE1       15.7900   -2.2290  -35.0280 C.ar  130  HIS130      0.1986
     69  NE2       16.3230   -2.2230  -36.2360 N.ar  130  HIS130     -0.2212
     70  N         17.0410    0.0840  -39.8200 N.3   133  THR133     -0.1218
     71  CA        16.2080    0.2450  -41.0180 C.3   133  THR133      0.1862
     72  C         16.0920    1.7190  -41.4050 C.2   133  THR133      0.2287
     73  O         15.6510    2.0440  -42.5050 O.2   133  THR133     -0.2866
     74  CB        14.7960   -0.3730  -40.8040 C.3   133  THR133      0.1770
     75  OG1       13.9580   -0.0970  -41.9330 O.3   133  THR133     -0.2211
     76  CG2       14.0570    0.2760  -39.6470 C.3   133  THR133      0.0375
     77  N          9.0150    4.7520  -37.1010 N.3   137  ILE137     -0.1245
     78  CA         7.8440    3.8910  -37.0170 C.3   137  ILE137      0.1561
     79  C          6.8900    4.4760  -35.9710 C.2   137  ILE137      0.2260
     80  O          7.2970    4.7170  -34.8390 O.2   137  ILE137     -0.2867
     81  CB         8.3030    2.4770  -36.6030 C.3   137  ILE137      0.0252
     82  CG1        9.2790    1.9030  -37.6550 C.3   137  ILE137      0.0019
     83  CG2        7.1050    1.5610  -36.4300 C.3   137  ILE137      0.0019
     84  CD1        9.8890    0.5820  -37.2340 C.3   137  ILE137      0.0001
     85  N          2.5180   -4.1460  -36.6000 N.3   145  LEU145     -0.1231
     86  CA         3.6690   -4.9950  -36.8360 C.3   145  LEU145      0.1693
     87  C          3.7340   -6.1280  -35.8380 C.2   145  LEU145      0.2592
     88  O          4.1120   -7.2660  -36.2040 O.2   145  LEU145     -0.2718
     89  CB         4.9380   -4.1430  -36.7520 C.3   145  LEU145      0.0284
     90  CG         6.2820   -4.8280  -36.9490 C.3   145  LEU145      0.0019
     91  CD1        6.4120   -5.2360  -38.4020 C.3   145  LEU145      0.0001
     92  CD2        7.3860   -3.8530  -36.5160 C.3   145  LEU145      0.0001
     93  N          3.4080   -5.8490  -34.5770 N.am  146  TYR146     -0.1976
     94  CA         3.5550   -6.8860  -33.5490 C.3   146  TYR146      0.1639
     95  C          2.3860   -7.8690  -33.5470 C.2   146  TYR146      0.2290
     96  O          2.5500   -9.0330  -33.1690 O.2   146  TYR146     -0.2864
     97  CB         3.8870   -6.3220  -32.1650 C.3   146  TYR146      0.0560
     98  CG         5.3760   -5.9850  -32.1180 C.ar  146  TYR146     -0.0198
     99  CD1        6.3060   -6.9180  -31.7210 C.ar  146  TYR146     -0.0009
    100  CD2        5.8330   -4.7670  -32.5470 C.ar  146  TYR146     -0.0009
    101  CE1        7.6630   -6.6290  -31.7110 C.ar  146  TYR146      0.0417
    102  CE2        7.1880   -4.4530  -32.5600 C.ar  146  TYR146      0.0417
    103  CZ         8.1040   -5.3840  -32.1470 C.ar  146  TYR146      0.1957
    104  OH         9.4740   -5.0890  -32.1580 O.3   146  TYR146     -0.2866
    105  N          1.1730   -8.7590  -36.5170 N.3   148  TRP148     -0.1227
    106  CA         1.6780   -9.6290  -37.5850 C.3   148  TRP148      0.1737
    107  C          2.7360  -10.5940  -37.0470 C.2   148  TRP148      0.2595
    108  O          2.7370  -11.7880  -37.3870 O.2   148  TRP148     -0.2718
    109  CB         2.2910   -8.8190  -38.7420 C.3   148  TRP148      0.0564
    110  CG         3.2610   -9.6310  -39.6080 C.ar  148  TRP148      0.0003
    111  CD1        2.9590  -10.3230  -40.7490 C.ar  148  TRP148      0.0946
    112  CD2        4.6640   -9.8430  -39.3810 C.ar  148  TRP148      0.0152
    113  NE1        4.0830  -10.9400  -41.2450 N.ar  148  TRP148     -0.2442
    114  CE2        5.1420  -10.6620  -40.4240 C.ar  148  TRP148      0.0810
    115  CE3        5.5740   -9.4050  -38.4100 C.ar  148  TRP148      0.0012
    116  CZ2        6.4770  -11.0610  -40.5160 C.ar  148  TRP148      0.0191
    117  CZ3        6.8970   -9.8220  -38.4950 C.ar  148  TRP148      0.0001
    118  CH2        7.3340  -10.6360  -39.5400 C.ar  148  TRP148      0.0015
    119  N          3.6460  -10.0670  -36.2250 N.am  149  HIS149     -0.1975
    120  CA         4.7590  -10.8610  -35.6700 C.3   149  HIS149      0.1656
    121  C          4.2290  -12.0760  -34.9220 C.2   149  HIS149      0.2291
    122  O          4.6810  -13.2010  -35.1380 O.2   149  HIS149     -0.2864
    123  CB         5.6490  -10.0080  -34.7470 C.3   149  HIS149      0.0771
    124  CG         6.9000  -10.7170  -34.2850 C.ar  149  HIS149      0.0820
    125  ND1        7.0850  -11.1160  -32.9770 N.ar  149  HIS149     -0.2267
    126  CD2        8.0280  -11.0860  -34.9490 C.ar  149  HIS149      0.1154
    127  CE1        8.2550  -11.7260  -32.8600 C.ar  149  HIS149      0.1986
    128  NE2        8.8570  -11.7050  -34.0370 N.ar  149  HIS149     -0.2212
    129  N          2.4750  -14.5530  -37.3540 N.3   152  HIS152     -0.1226
    130  CA         3.4850  -15.1870  -38.2150 C.3   152  HIS152      0.1752
    131  C          4.1440  -16.3580  -37.4490 C.2   152  HIS152      0.2596
    132  O          4.1800  -17.5040  -37.9610 O.2   152  HIS152     -0.2718
    133  CB         4.4220  -14.0560  -38.7050 C.3   152  HIS152      0.0759
    134  CG         5.8320  -14.4350  -39.0330 C.ar  152  HIS152      0.0818
    135  ND1        6.1710  -15.1920  -40.1350 N.ar  152  HIS152     -0.2268
    136  CD2        7.0050  -14.0240  -38.4870 C.ar  152  HIS152      0.1154
    137  CE1        7.4880  -15.2960  -40.2060 C.ar  152  HIS152      0.1986
    138  NE2        8.0180  -14.5960  -39.2180 N.ar  152  HIS152     -0.2212
    139  N          4.5780  -16.1100  -36.2160 N.am  153  HIS153     -0.1975
    140  CA         5.2410  -17.1680  -35.4020 C.3   153  HIS153      0.1656
    141  C          4.2830  -18.2610  -34.9480 C.2   153  HIS153      0.2291
    142  O          4.6350  -19.4460  -34.9250 O.2   153  HIS153     -0.2864
    143  CB         5.9670  -16.5840  -34.1800 C.3   153  HIS153      0.0771
    144  CG         7.2950  -15.9820  -34.5000 C.ar  153  HIS153      0.0820
    145  ND1        8.2400  -16.6360  -35.2590 N.ar  153  HIS153     -0.2267
    146  CD2        7.8290  -14.7860  -34.1770 C.ar  153  HIS153      0.1154
    147  CE1        9.3030  -15.8680  -35.3810 C.ar  153  HIS153      0.1986
    148  NE2        9.0820  -14.7270  -34.7430 N.ar  153  HIS153     -0.2212
@<TRIPOS>BOND
     1     9     7   ar
     2     7     8   ar
     3     7     6    1
     4     6     5    1
     5     1     2    1
     6     5     2    1
     7     4     3    2
     8     2     3    1
     9    73    72    2
    10    75    74    1
    11    72    71    1
    12   113   111   ar
    13   113   114   ar
    14    71    74    1
    15    71    70    1
    16    74    76    1
    17   111   110   ar
    18   116   114   ar
    19   116   118   ar
    20   114   112   ar
    21   137   135   ar
    22   137   138   ar
    23   135   134   ar
    24   110   112   ar
    25   110   109    1
    26   118   117   ar
    27   112   115   ar
    28   138   136   ar
    29   134   133    1
    30   134   136   ar
    31   109   106    1
    32   133   130    1
    33   117   115   ar
    34    91    90    1
    35   130   131    1
    36   130   129    1
    37   132   131    2
    38    63    62    2
    39    82    84    1
    40    82    81    1
    41   106   107    1
    42   106   105    1
    43   131   139   am
    44   108   107    2
    45    77    78    1
    46   107   119   am
    47    78    81    1
    48    78    79    1
    49    90    89    1
    50    90    92    1
    51    67    69   ar
    52    67    65   ar
    53    86    89    1
    54    86    85    1
    55    86    87    1
    56    81    83    1
    57    62    61    1
    58    10    11    1
    59    69    68   ar
    60    64    65    1
    61    64    61    1
    62   119   120    1
    63   139   140    1
    64    88    87    2
    65    65    66   ar
    66    79    80    2
    67    87    93   am
    68    60    61    1
    69   120   121    1
    70   120   123    1
    71   140   141    1
    72   140   143    1
    73   147   145   ar
    74   147   148   ar
    75    13    12    2
    76   145   144   ar
    77   122   121    2
    78    68    66   ar
    79   126   124   ar
    80   126   128   ar
    81   141   142    2
    82    11    12    1
    83    11    14    1
    84   123   124    1
    85   148   146   ar
    86    93    94    1
    87   144   143    1
    88   144   146   ar
    89    14    15    1
    90   124   125   ar
    91    16    15   ar
    92    16    18   ar
    93    15    17   ar
    94    18    19   ar
    95   128   127   ar
    96    17    19   ar
    97    17    20   ar
    98    19    21   ar
    99    20    22   ar
   100    21    23   ar
   101    22    23   ar
   102    59    57   ar
   103    94    95    1
   104    94    97    1
   105    95    96    2
   106    57    58   ar
   107    57    56    1
   108    56    55    1
   109   125   127   ar
   110    33    32   ar
   111    33    31   ar
   112    55    52    1
   113   102   100   ar
   114   102   103   ar
   115   100    98   ar
   116    32    30   ar
   117    51    52    1
   118    97    98    1
   119   104   103    1
   120   103   101   ar
   121    98    99   ar
   122    53    52    1
   123    53    54    2
   124    31    29   ar
   125    99   101   ar
   126    49    48    1
   127    30    29   ar
   128    29    28    1
   129    39    38    1
   130    48    50    1
   131    48    47    2
   132    28    25    1
   133    38    35    1
   134    47    46    1
   135    46    45    1
   136    25    26    1
   137    25    24    1
   138    35    36    1
   139    35    34    1
   140    26    27    2
   141    45    44    1
   142    44    41    1
   143    37    36    2
   144    43    42    2
   145    42    41    1
   146    41    40    1
