@<TRIPOS>MOLECULE
tmp/1rxuJ00.pdb
 147 139 0 0 0
SMALL
GASTEIGER

@<TRIPOS>ATOM
      1  N         12.4970   10.9000   93.7560 N.3    23  GLY23      -0.1225
      2  CA        11.1910   10.9390   94.3850 C.3    23  GLY23       0.1811
      3  C         10.1260   11.4200   93.4160 C.2    23  GLY23       0.2280
      4  O          9.0450   10.8460   93.3440 O.2    23  GLY23      -0.2866
      5  N          7.9270    8.4370   94.6310 N.3    65  GLY65      -0.1210
      6  CA         6.8530    9.2670   95.1600 C.3    65  GLY65       0.1956
      7  C          7.2950    9.8010   96.5010 C.2    65  GLY65       0.2611
      8  O          8.4130    9.5150   96.9080 O.2    65  GLY65      -0.2717
      9  N          6.4600   10.5590   97.2000 N.am   66  ILE66      -0.1979
     10  CA         6.8930   11.1000   98.4920 C.3    66  ILE66       0.1595
     11  C          6.6560   10.1000   99.6240 C.2    66  ILE66       0.2287
     12  O          5.5700    9.5380   99.7480 O.2    66  ILE66      -0.2864
     13  CB         6.2030   12.4610   98.7890 C.3    66  ILE66       0.0276
     14  CG1        6.7630   13.5610   97.8800 C.3    66  ILE66       0.0022
     15  CG2        6.3560   12.8550  100.2670 C.3    66  ILE66       0.0022
     16  CD1        5.8550   14.7730   97.7260 C.3    66  ILE66       0.0001
     17  N         19.5580    6.7750   96.1000 N.3    88  ARG88      -0.1245
     18  CA        18.5240    7.7920   96.1300 C.3    88  ARG88       0.1563
     19  C         19.0930    9.1660   95.8420 C.2    88  ARG88       0.2260
     20  O         20.1360    9.5490   96.3850 O.2    88  ARG88      -0.2867
     21  CB        17.7860    7.8150   97.4500 C.3    88  ARG88       0.0307
     22  CG        16.5190    8.6030   97.3430 C.3    88  ARG88       0.0489
     23  CD        15.7970    8.7360   98.6260 C.3    88  ARG88       0.2205
     24  NE        15.3350   10.1020   98.8400 N.pl3  88  ARG88      -0.0865
     25  CZ        14.3070   10.6540   98.2040 C.cat  88  ARG88       0.5346
     26  NH1       13.6190    9.9700   97.2760 N.pl3  88  ARG88       0.1354
     27  NH2       13.9730   11.9040   98.4980 N.pl3  88  ARG88       0.1354
     28  N         15.7600   16.0610   97.1240 N.3    91  THR91      -0.1203
     29  CA        15.8240   17.4670   97.5280 C.3    91  THR91       0.1994
     30  C         15.5880   17.5190   99.0450 C.2    91  THR91       0.2619
     31  O         14.8660   16.6690   99.6190 O.2    91  THR91      -0.2717
     32  CB        14.7740   18.3070   96.8010 C.3    91  THR91       0.1784
     33  OG1       13.4630   17.8090   97.1070 O.3    91  THR91      -0.2211
     34  CG2       14.8950   18.1120   95.3070 C.3    91  THR91       0.0376
     35  N         16.2090   18.5040   99.6900 N.am   92  THR92      -0.1938
     36  CA        16.1700   18.5810  101.1360 C.3    92  THR92       0.2028
     37  C         16.2680   20.0180  101.6490 C.2    92  THR92       0.2642
     38  O         16.7080   20.9470  100.9310 O.2    92  THR92      -0.2714
     39  CB        17.2840   17.7260  101.7240 C.3    92  THR92       0.1808
     40  OG1       17.1960   17.7430  103.1520 O.3    92  THR92      -0.2208
     41  CG2       18.6590   18.3460  101.4200 C.3    92  THR92       0.0379
     42  N         15.8320   20.1870  102.8970 N.am   93  GLY93      -0.1954
     43  CA        16.0090   21.4320  103.6150 C.3    93  GLY93       0.1869
     44  C         17.0590   21.2760  104.6860 C.2    93  GLY93       0.2309
     45  O         16.9270   20.4010  105.5740 O.2    93  GLY93      -0.2863
     46  N          5.9710   16.2950  106.0110 N.3   159  PHE159     -0.1241
     47  CA         6.6760   17.4620  105.5310 C.3   159  PHE159      0.1605
     48  C          6.4830   18.5890  106.5200 C.2   159  PHE159      0.2264
     49  O          7.3480   19.4470  106.6430 O.2   159  PHE159     -0.2867
     50  CB         6.1500   17.8650  104.1540 C.3   159  PHE159      0.0534
     51  CG         6.8210   19.0930  103.5620 C.ar  159  PHE159     -0.0203
     52  CD1        7.9380   18.9630  102.7460 C.ar  159  PHE159     -0.0042
     53  CD2        6.3190   20.3620  103.7900 C.ar  159  PHE159     -0.0042
     54  CE1        8.5360   20.0650  102.1930 C.ar  159  PHE159     -0.0003
     55  CE2        6.9240   21.4560  103.2380 C.ar  159  PHE159     -0.0003
     56  CZ         8.0300   21.3070  102.4400 C.ar  159  PHE159     -0.0000
     57  N          8.7290   17.9850  110.6990 N.3   163  GLN163     -0.1245
     58  CA         9.8520   18.8580  110.3910 C.3   163  GLN163      0.1566
     59  C          9.6720   20.2010  111.0890 C.2   163  GLN163      0.2260
     60  O         10.2620   21.2040  110.7200 O.2   163  GLN163     -0.2867
     61  CB         9.9840   19.0200  108.8880 C.3   163  GLN163      0.0367
     62  CG        10.3640   17.7280  108.1810 C.3   163  GLN163      0.0905
     63  CD        10.4990   17.8890  106.6790 C.2   163  GLN163      0.2608
     64  OE1       11.1660   18.8010  106.2000 O.2   163  GLN163     -0.2717
     65  NE2        9.8740   17.0000  105.9360 N.am  163  GLN163     -0.0878
     66  N          7.4670   22.5010  111.0810 N.3   165  ARG165     -0.1245
     67  CA         6.9700   23.6350  110.3340 C.3   165  ARG165      0.1563
     68  C          5.7110   24.1030  111.0390 C.2   165  ARG165      0.2260
     69  O          4.8350   23.2890  111.3240 O.2   165  ARG165     -0.2867
     70  CB         6.6720   23.2320  108.8870 C.3   165  ARG165      0.0307
     71  CG         7.8730   23.2970  107.9670 C.3   165  ARG165      0.0489
     72  CD         7.5540   23.0230  106.5180 C.3   165  ARG165      0.2205
     73  NE         8.6870   23.2900  105.6260 N.pl3 165  ARG165     -0.0865
     74  CZ         9.6010   22.3890  105.2750 C.cat 165  ARG165      0.5346
     75  NH1        9.5360   21.1460  105.7430 N.pl3 165  ARG165      0.1354
     76  NH2       10.5850   22.7320  104.4560 N.pl3 165  ARG165      0.1354
     77  N         16.4450   17.6690  106.8230 N.3   192  TYR192     -0.1227
     78  CA        15.2140   16.8880  106.7950 C.3   192  TYR192      0.1736
     79  C         14.9190   16.4250  105.3740 C.2   192  TYR192      0.2595
     80  O         15.0820   17.1660  104.4120 O.2   192  TYR192     -0.2718
     81  CB        14.0330   17.7450  107.2200 C.3   192  TYR192      0.0548
     82  CG        13.8160   17.9610  108.6850 C.ar  192  TYR192     -0.0200
     83  CD1       13.5320   16.9080  109.5260 C.ar  192  TYR192     -0.0009
     84  CD2       13.8260   19.2460  109.2150 C.ar  192  TYR192     -0.0009
     85  CE1       13.2980   17.1220  110.8910 C.ar  192  TYR192      0.0417
     86  CE2       13.5960   19.4820  110.5650 C.ar  192  TYR192      0.0417
     87  CZ        13.3280   18.4210  111.3990 C.ar  192  TYR192      0.1957
     88  OH        13.1010   18.6560  112.7310 O.3   192  TYR192     -0.2866
     89  N         14.4840   15.1810  105.2640 N.am  193  GLU193     -0.1965
     90  CA        13.8200   14.6750  104.0660 C.3   193  GLU193      0.1733
     91  C         12.9030   13.5290  104.4940 C.2   193  GLU193      0.2616
     92  O         12.7140   13.3080  105.6960 O.2   193  GLU193     -0.2715
     93  CB        14.8100   14.2630  102.9730 C.3   193  GLU193      0.0429
     94  CG        15.8280   13.2120  103.3910 C.3   193  GLU193      0.1163
     95  CD        15.2820   11.8170  103.2880 C.2   193  GLU193      0.3649
     96  OE1       14.9960   11.3780  102.1610 O.co2 193  GLU193     -0.2457
     97  OE2       15.1200   11.1800  104.3320 O.co2 193  GLU193     -0.2457
     98  N         12.3260   12.8020  103.5410 N.am  194  MET194     -0.1963
     99  CA        11.2020   11.9420  103.8930 C.3   194  MET194      0.1736
    100  C         11.2630   10.4640  103.5100 C.2   194  MET194      0.2616
    101  O         10.3060    9.7340  103.7650 O.2   194  MET194     -0.2715
    102  CB         9.9220   12.5620  103.3620 C.3   194  MET194      0.0427
    103  CG         9.5190   13.8250  104.0940 C.3   194  MET194      0.0599
    104  SD         8.0800   14.6600  103.3830 S.3   194  MET194     -0.1393
    105  CE         6.7740   13.5630  103.9050 C.3   194  MET194      0.0692
    106  N         12.3700   10.0080  102.9230 N.am  195  GLU195     -0.1977
    107  CA        12.4430    8.6200  102.4300 C.3   195  GLU195      0.1602
    108  C         13.6550    7.8130  102.8960 C.2   195  GLU195      0.2287
    109  O         13.5950    6.5940  102.9410 O.2   195  GLU195     -0.2864
    110  CB        12.3890    8.5960  100.9110 C.3   195  GLU195      0.0415
    111  CG        11.0940    9.1210  100.3030 C.3   195  GLU195      0.1163
    112  CD        10.9950   10.6450  100.2680 C.2   195  GLU195      0.3649
    113  OE1       12.0280   11.3530  100.3150 O.co2 195  GLU195     -0.2457
    114  OE2        9.8560   11.1410  100.2040 O.co2 195  GLU195     -0.2457
    115  N         17.7020   22.8520   98.8940 N.3   217  ILE217     -0.1231
    116  CA        16.9120   23.9050   98.2330 C.3   217  ILE217      0.1692
    117  C         16.3060   24.9390   99.2000 C.2   217  ILE217      0.2591
    118  O         15.6450   25.8840   98.7730 O.2   217  ILE217     -0.2718
    119  CB        15.8380   23.3040   97.2730 C.3   217  ILE217      0.0266
    120  CG1       14.7550   22.5400   98.0520 C.3   217  ILE217      0.0019
    121  CG2       16.5030   22.4160   96.2170 C.3   217  ILE217      0.0020
    122  CD1       13.4610   22.3110   97.2500 C.3   217  ILE217      0.0001
    123  N         16.5370   24.7480  100.4950 N.am  218  VAL218     -0.1980
    124  CA        16.1110   25.7020  101.5130 C.3   218  VAL218      0.1595
    125  C         16.9080   25.4670  102.8020 C.2   218  VAL218      0.2287
    126  O         17.1890   24.3040  103.1980 O.2   218  VAL218     -0.2864
    127  CB        14.5510   25.6730  101.7640 C.3   218  VAL218      0.0276
    128  CG1       14.0690   24.3190  102.3050 C.3   218  VAL218      0.0022
    129  CG2       14.1020   26.8140  102.6810 C.3   218  VAL218      0.0022
    130  N         16.5120   25.9510  106.7130 N.3   220  ARG220     -0.1245
    131  CA        15.4310   26.1280  107.6600 C.3   220  ARG220      0.1563
    132  C         15.6860   27.1550  108.7560 C.2   220  ARG220      0.2260
    133  O         14.7530   27.5260  109.4770 O.2   220  ARG220     -0.2867
    134  CB        15.0430   24.7840  108.2670 C.3   220  ARG220      0.0307
    135  CG        14.2400   23.9130  107.3120 C.3   220  ARG220      0.0489
    136  CD        12.8460   24.4490  107.0270 C.3   220  ARG220      0.2205
    137  NE        12.0590   24.6020  108.2550 N.pl3 220  ARG220     -0.0865
    138  CZ        11.4950   23.5930  108.9030 C.cat 220  ARG220      0.5346
    139  NH1       10.8010   23.8290  110.0020 N.pl3 220  ARG220      0.1354
    140  NH2       11.6200   22.3530  108.4480 N.pl3 220  ARG220      0.1354
    141  N         10.8000   26.7080  100.5680 N.3   226  PRO226     -0.2116
    142  CA        11.7840   27.1250   99.5500 C.3   226  PRO226      0.1372
    143  C         11.2710   28.1780   98.5670 C.2   226  PRO226      0.2244
    144  O         10.0560   28.3230   98.3750 O.2   226  PRO226     -0.2868
    145  CB        12.0760   25.8290   98.7800 C.3   226  PRO226      0.0268
    146  CG        11.6400   24.7290   99.6720 C.3   226  PRO226      0.0207
    147  CD        10.5220   25.2610  100.5090 C.3   226  PRO226      0.0892
@<TRIPOS>BOND
     1     4     3    2
     2     3     2    1
     3     1     2    1
     4     5     6    1
     5     6     7    1
     6    34    32    1
     7    19    18    1
     8    19    20    2
     9    17    18    1
    10    18    21    1
    11   121   119    1
    12     7     8    2
    13     7     9   am
    14    32    33    1
    15    32    29    1
    16    28    29    1
    17     9    10    1
    18   122   120    1
    19   119   120    1
    20   119   116    1
    21    26    25    1
    22    22    21    1
    23    22    23    1
    24    29    30    1
    25    16    14    1
    26    14    13    1
    27    25    27    1
    28    25    24    2
    29   116   115    1
    30   116   117    1
    31   144   143    2
    32    10    13    1
    33    10    11    1
    34   143   142    1
    35    23    24    1
    36   118   117    2
    37   145   142    1
    38   145   146    1
    39    13    15    1
    40    30    31    2
    41    30    35   am
    42   117   123   am
    43   142   141    1
    44    11    12    2
    45   146   147    1
    46    35    36    1
    47   114   112   ar
    48   112   111    1
    49   112   113   ar
    50   111   110    1
    51   123   124    1
    52   147   141    1
    53   110   107    1
    54    38    37    2
    55    36    37    1
    56    36    39    1
    57    41    39    1
    58   124   127    1
    59   124   125    1
    60    37    42   am
    61    39    40    1
    62   127   128    1
    63   127   129    1
    64    96    95   ar
    65    54    56   ar
    66    54    52   ar
    67   107   108    1
    68   107   106    1
    69    56    55   ar
    70    52    51   ar
    71   125   126    2
    72   108   109    2
    73    42    43    1
    74   106   100   am
    75    93    94    1
    76    93    90    1
    77    55    53   ar
    78    95    94    1
    79    95    97   ar
    80   102    99    1
    81   102   103    1
    82   104   105    1
    83   104   103    1
    84   100   101    2
    85   100    99    1
    86    98    99    1
    87    98    91   am
    88    51    53   ar
    89    51    50    1
    90    43    44    1
    91    90    91    1
    92    90    89    1
    93    50    47    1
    94    80    79    2
    95    76    74    1
    96    91    92    2
    97    44    45    2
    98    89    79   am
    99    74    73    2
   100    74    75    1
   101    79    78    1
   102    47    46    1
   103    47    48    1
   104    73    72    1
   105    65    63   am
   106    64    63    2
   107    72    71    1
   108    48    49    2
   109    63    62    1
   110   130   131    1
   111    78    77    1
   112    78    81    1
   113   136   135    1
   114   136   137    1
   115    81    82    1
   116   135   134    1
   117   131   134    1
   118   131   132    1
   119    71    70    1
   120    62    61    1
   121   137   138    2
   122   140   138    1
   123    82    84   ar
   124    82    83   ar
   125   132   133    2
   126    70    67    1
   127    61    58    1
   128   138   139    1
   129    84    86   ar
   130    83    85   ar
   131    67    68    1
   132    67    66    1
   133    58    57    1
   134    58    59    1
   135    86    87   ar
   136    60    59    2
   137    85    87   ar
   138    68    69    2
   139    87    88    1
