@<TRIPOS>MOLECULE
tmp/1rxzA00.pdb
 215 211 0 0 0
SMALL
GASTEIGER

@<TRIPOS>ATOM
      1  N         71.2830   37.5720    9.4730 N.3    39  VAL39      -0.1245
      2  CA        71.3570   36.2690   10.1230 C.3    39  VAL39       0.1561
      3  C         70.1940   36.2460   11.0870 C.2    39  VAL39       0.2260
      4  O         69.7230   37.3050   11.4910 O.2    39  VAL39      -0.2867
      5  CB        72.6720   36.1000   10.9110 C.3    39  VAL39       0.0252
      6  CG1       73.8420   35.9370    9.9490 C.3    39  VAL39       0.0019
      7  CG2       72.8960   37.3090   11.8110 C.3    39  VAL39       0.0019
      8  N         68.9710   33.6050   16.2880 N.3    42  ALA42      -0.1231
      9  CA        69.6130   32.3930   16.7740 C.3    42  ALA42       0.1694
     10  C         71.1060   32.3220   16.4170 C.2    42  ALA42       0.2592
     11  O         71.9170   31.8330   17.2060 O.2    42  ALA42      -0.2718
     12  CB        68.8660   31.1700   16.2320 C.3    42  ALA42       0.0304
     13  N         71.4550   32.8180   15.2300 N.am   43  ASN43      -0.1960
     14  CA        72.8360   32.8280   14.7450 C.3    43  ASN43       0.1819
     15  C         73.2300   31.4960   14.1120 C.2    43  ASN43       0.2621
     16  O         74.4040   31.1640   14.0060 O.2    43  ASN43      -0.2715
     17  CB        73.7850   33.1750   15.8960 C.3    43  ASN43       0.1195
     18  CG        74.8270   34.1980   15.5040 C.2    43  ASN43       0.2630
     19  OD1       75.7940   33.8770   14.8180 O.2    43  ASN43      -0.2716
     20  ND2       74.6220   35.4480   15.9250 N.am   43  ASN43      -0.0877
     21  N         72.2260   30.7540   13.6710 N.am   44  VAL44      -0.1963
     22  CA        72.4320   29.4620   13.0380 C.3    44  VAL44       0.1727
     23  C         72.4760   29.5710   11.5090 C.2    44  VAL44       0.2616
     24  O         73.2960   28.9290   10.8480 O.2    44  VAL44      -0.2715
     25  CB        71.3090   28.4780   13.4420 C.3    44  VAL44       0.0290
     26  CG1       71.3720   27.2250   12.5930 C.3    44  VAL44       0.0023
     27  CG2       71.4480   28.1270   14.9220 C.3    44  VAL44       0.0023
     28  N         71.6080   30.4040   10.9500 N.am   45  ALA45      -0.1963
     29  CA        71.5520   30.5500    9.5050 C.3    45  ALA45       0.1728
     30  C         71.7500   31.9790    9.0420 C.2    45  ALA45       0.2616
     31  O         71.5590   32.9160    9.8170 O.2    45  ALA45      -0.2715
     32  CB        70.2230   30.0270    8.9980 C.3    45  ALA45       0.0334
     33  N         72.1330   32.1330    7.7730 N.am   46  MET46      -0.1977
     34  CA        72.3370   33.4440    7.1590 C.3    46  MET46       0.1605
     35  C         71.7070   33.4870    5.7650 C.2    46  MET46       0.2287
     36  O         71.7380   32.5060    5.0240 O.2    46  MET46      -0.2864
     37  CB        73.8260   33.7590    7.0440 C.3    46  MET46       0.0413
     38  CG        74.1250   35.1040    6.4120 C.3    46  MET46       0.0598
     39  SD        75.8800   35.4620    6.3820 S.3    46  MET46      -0.1393
     40  CE        75.9570   36.8700    5.2890 C.3    46  MET46       0.0692
     41  N         76.1480   40.3590    9.1960 N.3   120  PRO120     -0.2102
     42  CA        77.3230   39.4870    9.2570 C.3   120  PRO120      0.1504
     43  C         78.2110   39.5350    8.0180 C.2   120  PRO120      0.2575
     44  O         77.7250   39.4520    6.8890 O.2   120  PRO120     -0.2718
     45  CB        76.6960   38.1180    9.4450 C.3   120  PRO120      0.0282
     46  CG        75.5040   38.2130    8.5440 C.3   120  PRO120      0.0208
     47  CD        74.9350   39.5640    8.9170 C.3   120  PRO120      0.0893
     48  N         79.5150   39.6690    8.2300 N.am  121  ARG121     -0.1980
     49  CA        80.4480   39.6920    7.1140 C.3   121  ARG121      0.1597
     50  C         80.2480   38.4010    6.3220 C.2   121  ARG121      0.2287
     51  O         80.3420   37.3050    6.8810 O.2   121  ARG121     -0.2864
     52  CB        81.8960   39.7480    7.6130 C.3   121  ARG121      0.0334
     53  CG        82.4090   41.1130    8.0460 C.3   121  ARG121      0.0492
     54  CD        83.8800   40.9970    8.4620 C.3   121  ARG121      0.2205
     55  NE        84.5470   42.2890    8.6280 N.pl3 121  ARG121     -0.0865
     56  CZ        84.2110   43.2030    9.5350 C.cat 121  ARG121      0.5346
     57  NH1       83.2070   42.9750   10.3720 N.pl3 121  ARG121      0.1354
     58  NH2       84.8830   44.3470    9.6050 N.pl3 121  ARG121      0.1354
     59  N         80.7800   35.2240    4.8350 N.3   123  PRO123     -0.2102
     60  CA        81.8780   34.2810    5.0600 C.3   123  PRO123      0.1504
     61  C         82.7660   34.0450    3.8470 C.2   123  PRO123      0.2576
     62  O         82.3660   34.3070    2.7110 O.2   123  PRO123     -0.2718
     63  CB        81.1510   33.0130    5.4900 C.3   123  PRO123      0.0282
     64  CG        79.8900   33.0850    4.6950 C.3   123  PRO123      0.0208
     65  CD        79.4830   34.5270    4.8710 C.3   123  PRO123      0.0893
     66  N         83.9830   33.5730    4.1060 N.am  124  GLU124     -0.1966
     67  CA        84.9290   33.2450    3.0470 C.3   124  GLU124      0.1733
     68  C         85.0770   31.7400    3.1390 C.2   124  GLU124      0.2616
     69  O         86.1080   31.2390    3.5820 O.2   124  GLU124     -0.2715
     70  CB        86.2970   33.8940    3.2770 C.3   124  GLU124      0.0429
     71  CG        86.3570   35.3990    3.0770 C.3   124  GLU124      0.1163
     72  CD        87.7840   35.9340    3.1570 C.2   124  GLU124      0.3649
     73  OE1       88.5050   35.5840    4.1200 O.co2 124  GLU124     -0.2457
     74  OE2       88.1810   36.7110    2.2590 O.co2 124  GLU124     -0.2457
     75  N         84.0320   31.0250    2.7360 N.am  125  LEU125     -0.1977
     76  CA        84.0320   29.5710    2.7930 C.3   125  LEU125      0.1596
     77  C         84.6250   28.8880    1.5690 C.2   125  LEU125      0.2287
     78  O         84.3850   29.2770    0.4300 O.2   125  LEU125     -0.2864
     79  CB        82.6140   29.0600    3.0320 C.3   125  LEU125      0.0297
     80  CG        81.9700   29.4810    4.3550 C.3   125  LEU125      0.0022
     81  CD1       80.5720   28.8870    4.4440 C.3   125  LEU125      0.0001
     82  CD2       82.8310   29.0180    5.5270 C.3   125  LEU125      0.0001
     83  N         66.9130   15.7380   11.3410 N.3   151  GLN151     -0.1245
     84  CA        68.1810   16.0290   10.6970 C.3   151  GLN151      0.1566
     85  C         68.4240   15.1840    9.4560 C.2   151  GLN151      0.2260
     86  O         67.7920   14.1520    9.2530 O.2   151  GLN151     -0.2867
     87  CB        69.3250   15.8670   11.6980 C.3   151  GLN151      0.0367
     88  CG        69.2390   14.6240   12.5410 C.3   151  GLN151      0.0905
     89  CD        70.0220   14.7620   13.8270 C.2   151  GLN151      0.2608
     90  OE1       69.7160   15.6180   14.6580 O.2   151  GLN151     -0.2717
     91  NE2       71.0370   13.9230   14.0020 N.am  151  GLN151     -0.0878
     92  N         76.0180   17.2090    8.5420 N.3   192  MET192     -0.1245
     93  CA        74.6460   16.9700    8.9810 C.3   192  MET192      0.1570
     94  C         73.9760   18.3020    9.3180 C.2   192  MET192      0.2261
     95  O         74.6260   19.2210    9.8000 O.2   192  MET192     -0.2867
     96  CB        74.6370   16.0830   10.2190 C.3   192  MET192      0.0387
     97  CG        73.2680   15.9060   10.8340 C.3   192  MET192      0.0595
     98  SD        73.4700   15.4290   12.5380 S.3   192  MET192     -0.1393
     99  CE        73.6600   13.6250   12.3500 C.3   192  MET192      0.0692
    100  N         69.8580   20.3980   10.3090 N.3   194  SER194     -0.1217
    101  CA        68.5140   20.2570   10.8470 C.3   194  SER194      0.1889
    102  C         67.4940   20.5030    9.7420 C.2   194  SER194      0.2288
    103  O         67.5060   21.5510    9.0850 O.2   194  SER194     -0.2866
    104  CB        68.2820   21.2420   12.0000 C.3   194  SER194      0.2089
    105  OG        68.3940   22.5820   11.5570 O.3   194  SER194     -0.2183
    106  N         65.4340   24.0790    9.4890 N.3   197  TYR197     -0.1241
    107  CA        65.8480   25.1960    8.6550 C.3   197  TYR197      0.1605
    108  C         65.7340   24.8510    7.1770 C.2   197  TYR197      0.2264
    109  O         65.1490   25.6050    6.4060 O.2   197  TYR197     -0.2867
    110  CB        67.2870   25.5910    8.9570 C.3   197  TYR197      0.0534
    111  CG        67.4460   26.4810   10.1590 C.ar  197  TYR197     -0.0201
    112  CD1       67.7220   25.9480   11.4160 C.ar  197  TYR197     -0.0009
    113  CD2       67.3500   27.8660   10.0370 C.ar  197  TYR197     -0.0009
    114  CE1       67.9080   26.7810   12.5220 C.ar  197  TYR197      0.0417
    115  CE2       67.5310   28.7060   11.1310 C.ar  197  TYR197      0.0417
    116  CZ        67.8150   28.1610   12.3670 C.ar  197  TYR197      0.1957
    117  OH        68.0510   28.9890   13.4400 O.3   197  TYR197     -0.2866
    118  N         81.6780   18.8370    8.0050 N.3   218  ASN218     -0.1225
    119  CA        81.5630   19.4880    9.3020 C.3   218  ASN218      0.1785
    120  C         81.6930   21.0030    9.1530 C.2   218  ASN218      0.2597
    121  O         82.2760   21.6760    9.9990 O.2   218  ASN218     -0.2718
    122  CB        82.6250   18.9460   10.2580 C.3   218  ASN218      0.1169
    123  CG        82.3180   17.5320   10.7210 C.2   218  ASN218      0.2627
    124  OD1       83.1590   16.8670   11.3330 O.2   218  ASN218     -0.2716
    125  ND2       81.1070   17.0690   10.4350 N.am  218  ASN218     -0.0877
    126  N         81.1350   21.5140    8.0560 N.am  219  TYR219     -0.1963
    127  CA        81.1260   22.9380    7.7300 C.3   219  TYR219      0.1756
    128  C         79.6960   23.3420    7.4020 C.2   219  TYR219      0.2461
    129  O         78.8190   22.4990    7.2070 O.2   219  TYR219     -0.2730
    130  CB        82.0020   23.2410    6.5080 C.3   219  TYR219      0.0574
    131  CG        83.5010   23.2310    6.7500 C.ar  219  TYR219     -0.0198
    132  CD1       84.3160   22.2650    6.1520 C.ar  219  TYR219     -0.0009
    133  CD2       84.1060   24.1930    7.5600 C.ar  219  TYR219     -0.0009
    134  CE1       85.6950   22.2520    6.3540 C.ar  219  TYR219      0.0417
    135  CE2       85.4890   24.1910    7.7710 C.ar  219  TYR219      0.0417
    136  CZ        86.2800   23.2150    7.1660 C.ar  219  TYR219      0.1957
    137  OH        87.6470   23.1850    7.3890 O.3   219  TYR219     -0.2866
    138  N         79.4340   24.6480    7.3440 N.am  220  PRO220     -0.2727
    139  CA        78.0610   25.0360    7.0230 C.3   220  PRO220      0.1402
    140  C         77.7820   24.7210    5.5600 C.2   220  PRO220      0.2269
    141  O         78.6910   24.3640    4.8100 O.2   220  PRO220     -0.2865
    142  CB        78.0550   26.5400    7.3020 C.3   220  PRO220      0.0296
    143  CG        79.1460   26.7040    8.3460 C.3   220  PRO220      0.0237
    144  CD        80.2180   25.8040    7.8080 C.3   220  PRO220      0.0939
    145  N         72.8090   30.1690    4.1890 N.3   237  ILE237     -0.1231
    146  CA        73.9610   29.4930    4.7510 C.3   237  ILE237      0.1692
    147  C         73.5490   28.9600    6.1260 C.2   237  ILE237      0.2592
    148  O         73.2220   29.7270    7.0280 O.2   237  ILE237     -0.2718
    149  CB        75.1430   30.4560    4.9050 C.3   237  ILE237      0.0266
    150  CG1       75.3970   31.1660    3.5740 C.3   237  ILE237      0.0019
    151  CG2       76.3950   29.6790    5.3530 C.3   237  ILE237      0.0020
    152  CD1       76.5240   32.1860    3.6190 C.3   237  ILE237      0.0001
    153  N         73.5570   27.6390    6.2710 N.am  238  LEU238     -0.1966
    154  CA        73.1760   26.9970    7.5140 C.3   238  LEU238      0.1728
    155  C         74.3830   26.3590    8.2040 C.2   238  LEU238      0.2616
    156  O         75.2270   25.7230    7.5630 O.2   238  LEU238     -0.2715
    157  CB        72.1030   25.9390    7.2320 C.3   238  LEU238      0.0311
    158  CG        71.6230   25.0350    8.3680 C.3   238  LEU238      0.0022
    159  CD1       70.8520   25.8290    9.4220 C.3   238  LEU238      0.0001
    160  CD2       70.7510   23.9450    7.7660 C.3   238  LEU238      0.0001
    161  N         74.4640   26.5420    9.5170 N.am  239  ALA239     -0.1964
    162  CA        75.5580   25.9690   10.2830 C.3   239  ALA239      0.1713
    163  C         75.2620   24.4840   10.4010 C.2   239  ALA239      0.2458
    164  O         74.1020   24.0850   10.4290 O.2   239  ALA239     -0.2730
    165  CB        75.6280   26.6100   11.6600 C.3   239  ALA239      0.0333
    166  N         76.3050   23.6450   10.4650 N.am  240  PRO240     -0.2716
    167  CA        76.0920   22.2000   10.5770 C.3   240  PRO240      0.1536
    168  C         75.8250   21.7250   11.9920 C.2   240  PRO240      0.2598
    169  O         76.0290   22.4580   12.9480 O.2   240  PRO240     -0.2715
    170  CB        77.3960   21.6260   10.0310 C.3   240  PRO240      0.0310
    171  CG        78.3970   22.5900   10.5460 C.3   240  PRO240      0.0237
    172  CD        77.7350   23.9470   10.2720 C.3   240  PRO240      0.0939
    173  N         75.3440   20.4940   12.1030 N.am  241  ARG241     -0.1964
    174  CA        75.1060   19.8710   13.3950 C.3   241  ARG241      0.1729
    175  C         76.3160   18.9670   13.4550 C.2   241  ARG241      0.2616
    176  O         76.4320   18.0320   12.6660 O.2   241  ARG241     -0.2715
    177  CB        73.8480   19.0140   13.3920 C.3   241  ARG241      0.0348
    178  CG        72.6050   19.7370   12.9860 C.3   241  ARG241      0.0492
    179  CD        71.3970   18.8230   13.0460 C.3   241  ARG241      0.2205
    180  NE        70.7790   18.8450   14.3640 N.pl3 241  ARG241     -0.0865
    181  CZ        71.3090   18.3080   15.4570 C.cat 241  ARG241      0.5346
    182  NH1       72.4760   17.6870   15.4010 N.pl3 241  ARG241      0.1354
    183  NH2       70.6750   18.4180   16.6140 N.pl3 241  ARG241      0.1354
    184  N         77.2310   19.2590   14.3710 N.am  242  ILE242     -0.1963
    185  CA        78.4550   18.4820   14.4950 C.3   242  ILE242      0.1727
    186  C         78.2550   17.2140   15.3170 C.2   242  ILE242      0.2616
    187  O         77.7140   17.2540   16.4270 O.2   242  ILE242     -0.2715
    188  CB        79.5760   19.3590   15.0890 C.3   242  ILE242      0.0290
    189  CG1       79.8020   20.5430   14.1420 C.3   242  ILE242      0.0022
    190  CG2       80.8630   18.5560   15.2600 C.3   242  ILE242      0.0023
    191  CD1       80.8740   21.4650   14.5870 C.3   242  ILE242      0.0001
    192  N         78.6970   16.0900   14.7520 N.am  243  GLU243     -0.1963
    193  CA        78.5900   14.7830   15.3890 C.3   243  GLU243      0.1733
    194  C         79.4690   14.7840   16.6260 C.2   243  GLU243      0.2617
    195  O         80.6910   14.6970   16.5330 O.2   243  GLU243     -0.2715
    196  CB        79.0530   13.6730   14.4300 C.3   243  GLU243      0.0429
    197  CG        78.5570   13.7650   12.9670 C.3   243  GLU243      0.1163
    198  CD        77.0460   13.6060   12.8100 C.2   243  GLU243      0.3649
    199  OE1       76.4930   12.5570   13.2210 O.co2 243  GLU243     -0.2457
    200  OE2       76.4130   14.5310   12.2540 O.co2 243  GLU243     -0.2457
    201  N         78.8260   14.8880   17.7840 N.am  244  SER244     -0.1936
    202  CA        79.5190   14.9170   19.0720 C.3   244  SER244      0.2055
    203  C         79.9470   13.5300   19.5360 C.2   244  SER244      0.2642
    204  O         79.1040   12.6700   19.8010 O.2   244  SER244     -0.2714
    205  CB        78.6110   15.5430   20.1340 C.3   244  SER244      0.2130
    206  OG        79.1550   15.3950   21.4290 O.3   244  SER244     -0.2179
    207  N         81.2520   13.3100   19.6650 N.am  245  GLU245     -0.1976
    208  CA        81.7240   12.0000   20.0980 C.3   245  GLU245      0.1602
    209  C         81.7210   11.8710   21.6320 C.2   245  GLU245      0.2287
    210  O         81.4260   12.8760   22.3330 O.2   245  GLU245     -0.2864
    211  CB        83.1310   11.7310   19.5530 C.3   245  GLU245      0.0415
    212  CG        84.2860   11.9950   20.5190 C.3   245  GLU245      0.1163
    213  CD        84.6120   13.4730   20.6880 C.2   245  GLU245      0.3649
    214  OE1       83.6710   14.2740   20.8630 O.co2 245  GLU245     -0.2457
    215  OE2       85.8110   13.8320   20.6660 O.co2 245  GLU245     -0.2457
@<TRIPOS>BOND
     1    78    77    2
     2    77    76    1
     3    74    72   ar
     4    62    61    2
     5    75    76    1
     6    75    68   am
     7    76    79    1
     8    79    80    1
     9    67    68    1
    10    67    70    1
    11    67    66    1
    12    71    72    1
    13    71    70    1
    14    68    69    2
    15    72    73   ar
    16   150   152    1
    17   150   149    1
    18    61    66   am
    19    61    60    1
    20   145   146    1
    21    80    81    1
    22    80    82    1
    23    64    65    1
    24    64    63    1
    25   146   149    1
    26   146   147    1
    27   141   140    2
    28    59    65    1
    29    59    60    1
    30   149   151    1
    31    36    35    2
    32    60    63    1
    33    40    39    1
    34   140   139    1
    35    35    34    1
    36   147   153   am
    37   147   148    2
    38   132   134   ar
    39   132   131   ar
    40   153   154    1
    41    50    51    2
    42    50    49    1
    43   134   136   ar
    44    39    38    1
    45   109   108    2
    46    38    37    1
    47   130   131    1
    48   130   127    1
    49   131   133   ar
    50    44    43    2
    51   139   142    1
    52   139   138    1
    53    37    34    1
    54    49    52    1
    55    49    48    1
    56    34    33    1
    57   136   137    1
    58   136   135   ar
    59   108   107    1
    60   129   128    2
    61   157   154    1
    62   157   158    1
    63   142   143    1
    64   138   128   am
    65   138   144    1
    66   128   127    1
    67   154   155    1
    68   133   135   ar
    69   156   155    2
    70    52    53    1
    71   127   126    1
    72   160   158    1
    73    33    30   am
    74   144   143    1
    75   118   119    1
    76    43    48   am
    77    43    42    1
    78    53    54    1
    79   126   120   am
    80   155   161   am
    81   158   159    1
    82    54    55    1
    83    92    93    1
    84    46    47    1
    85    46    45    1
    86    55    56    2
    87   107   110    1
    88   107   106    1
    89    47    41    1
    90   110   111    1
    91    93    94    1
    92    93    96    1
    93    32    29    1
    94    30    29    1
    95    30    31    2
    96   103   102    2
    97   120   119    1
    98   120   121    2
    99    41    42    1
   100    86    85    2
   101    42    45    1
   102   119   122    1
   103    94    95    2
   104    85    84    1
   105     1     2    1
   106    29    28    1
   107   161   162    1
   108    56    58    1
   109    56    57    1
   110   102   101    1
   111     6     5    1
   112   170   171    1
   113   170   167    1
   114   113   111   ar
   115   113   115   ar
   116     2     5    1
   117     2     3    1
   118   111   112   ar
   119    96    97    1
   120   122   123    1
   121   172   166    1
   122   172   171    1
   123   162   163    1
   124   162   165    1
   125   100   101    1
   126   163   164    2
   127   163   166   am
   128   125   123   am
   129   166   167    1
   130   167   168    1
   131    84    83    1
   132    84    87    1
   133   123   124    2
   134    97    98    1
   135   101   104    1
   136    24    23    2
   137     5     7    1
   138    28    23   am
   139     3     4    2
   140   115   116   ar
   141   112   114   ar
   142    23    22    1
   143   105   104    1
   144    87    88    1
   145   168   173   am
   146   168   169    2
   147   173   174    1
   148   200   198   ar
   149    99    98    1
   150   116   114   ar
   151   116   117    1
   152    88    89    1
   153    26    25    1
   154   176   175    2
   155   198   197    1
   156   198   199   ar
   157   197   196    1
   158   178   179    1
   159   178   177    1
   160    22    25    1
   161    22    21    1
   162   179   180    1
   163   177   174    1
   164   174   175    1
   165    25    27    1
   166   175   184   am
   167    21    15   am
   168    89    91   am
   169    89    90    2
   170    16    15    2
   171    15    14    1
   172   189   191    1
   173   189   188    1
   174   180   181    2
   175   184   185    1
   176   196   193    1
   177   185   188    1
   178   185   186    1
   179    14    13    1
   180    14    17    1
   181   192   186   am
   182   192   193    1
   183    19    18    2
   184   188   190    1
   185    13    10   am
   186   186   187    2
   187   193   194    1
   188   182   181    1
   189   181   183    1
   190    18    17    1
   191    18    20   am
   192    12     9    1
   193     8     9    1
   194    10     9    1
   195    10    11    2
   196   195   194    2
   197   194   201   am
   198   201   202    1
   199   202   203    1
   200   202   205    1
   201   203   207   am
   202   203   204    2
   203   211   208    1
   204   211   212    1
   205   207   208    1
   206   208   209    1
   207   205   206    1
   208   212   213    1
   209   215   213   ar
   210   213   214   ar
   211   209   210    2
