@<TRIPOS>MOLECULE
tmp/1ry0A01.pdb
 192 190 0 0 0
SMALL
GASTEIGER

@<TRIPOS>ATOM
      1  N         -9.7570  -27.0940    6.7550 N.3    20  TYR20      -0.1241
      2  CA        -8.3220  -26.8690    6.6760 C.3    20  TYR20       0.1605
      3  C         -7.4700  -28.1160    6.8500 C.2    20  TYR20       0.2264
      4  O         -7.7230  -28.9530    7.7130 O.2    20  TYR20      -0.2867
      5  CB        -7.8480  -25.8260    7.6880 C.3    20  TYR20       0.0534
      6  CG        -6.3660  -25.5630    7.5500 C.ar   20  TYR20      -0.0201
      7  CD1       -5.8790  -24.6920    6.5700 C.ar   20  TYR20      -0.0009
      8  CD2       -5.4400  -26.2480    8.3370 C.ar   20  TYR20      -0.0009
      9  CE1       -4.5080  -24.5210    6.3780 C.ar   20  TYR20       0.0417
     10  CE2       -4.0700  -26.0810    8.1500 C.ar   20  TYR20       0.0417
     11  CZ        -3.6140  -25.2220    7.1700 C.ar   20  TYR20       0.1957
     12  OH        -2.2610  -25.0780    6.9760 O.3    20  TYR20      -0.2866
     13  N         -7.4630  -18.1810    3.0940 N.3    50  LEU50      -0.1231
     14  CA        -6.1840  -18.6320    3.6230 C.3    50  LEU50       0.1693
     15  C         -5.9090  -20.1370    3.4600 C.2    50  LEU50       0.2592
     16  O         -4.7550  -20.5440    3.3290 O.2    50  LEU50      -0.2718
     17  CB        -6.0990  -18.2410    5.1020 C.3    50  LEU50       0.0284
     18  CG        -4.8500  -18.6420    5.8880 C.3    50  LEU50       0.0019
     19  CD1       -3.6550  -17.8340    5.4200 C.3    50  LEU50       0.0001
     20  CD2       -5.1130  -18.4160    7.3770 C.3    50  LEU50       0.0001
     21  N         -6.9640  -20.9520    3.4510 N.am   51  TYR51      -0.1976
     22  CA        -6.8230  -22.4110    3.3520 C.3    51  TYR51       0.1639
     23  C         -6.3630  -22.9730    2.0090 C.2    51  TYR51       0.2290
     24  O         -5.9990  -24.1410    1.9210 O.2    51  TYR51      -0.2864
     25  CB        -8.1410  -23.0930    3.7410 C.3    51  TYR51       0.0560
     26  CG        -8.6620  -22.7080    5.1110 C.ar   51  TYR51      -0.0198
     27  CD1       -9.9560  -23.0550    5.5100 C.ar   51  TYR51      -0.0009
     28  CD2       -7.8700  -21.9850    6.0020 C.ar   51  TYR51      -0.0009
     29  CE1      -10.4490  -22.6880    6.7590 C.ar   51  TYR51       0.0417
     30  CE2       -8.3510  -21.6180    7.2430 C.ar   51  TYR51       0.0417
     31  CZ        -9.6330  -21.9630    7.6200 C.ar   51  TYR51       0.1957
     32  OH       -10.1040  -21.5460    8.8410 O.3    51  TYR51      -0.2866
     33  N         -9.2690  -12.5760    4.3220 N.3    82  TRP82      -0.1241
     34  CA        -7.9580  -12.5890    4.9540 C.3    82  TRP82       0.1605
     35  C         -7.5570  -11.1690    5.3920 C.2    82  TRP82       0.2264
     36  O         -8.0120  -10.1680    4.8280 O.2    82  TRP82      -0.2867
     37  CB        -6.8970  -13.1920    4.0290 C.3    82  TRP82       0.0550
     38  CG        -5.5750  -13.4100    4.7300 C.ar   82  TRP82       0.0003
     39  CD1       -4.3420  -13.0310    4.2870 C.ar   82  TRP82       0.0946
     40  CD2       -5.3740  -13.9780    6.0360 C.ar   82  TRP82       0.0152
     41  NE1       -3.3870  -13.3190    5.2320 N.ar   82  TRP82      -0.2442
     42  CE2       -3.9900  -13.9000    6.3150 C.ar   82  TRP82       0.0810
     43  CE3       -6.2280  -14.5410    6.9970 C.ar   82  TRP82       0.0012
     44  CZ2       -3.4380  -14.3640    7.5170 C.ar   82  TRP82       0.0191
     45  CZ3       -5.6790  -15.0040    8.1960 C.ar   82  TRP82       0.0001
     46  CH2       -4.2960  -14.9100    8.4420 C.ar   82  TRP82       0.0015
     47  N        -11.6710  -12.7960    8.9770 N.3   113  HIS113     -0.1226
     48  CA       -10.9000  -13.8940    9.5510 C.3   113  HIS113      0.1752
     49  C        -10.2140  -13.5800   10.8870 C.2   113  HIS113      0.2596
     50  O        -10.1610  -14.4290   11.7800 O.2   113  HIS113     -0.2718
     51  CB        -9.8550  -14.3670    8.5420 C.3   113  HIS113      0.0759
     52  CG        -9.4780  -15.8110    8.6860 C.ar  113  HIS113      0.0818
     53  ND1       -9.1620  -16.6070    7.6060 N.ar  113  HIS113     -0.2268
     54  CD2       -9.3480  -16.5980    9.7830 C.ar  113  HIS113      0.1154
     55  CE1       -8.8560  -17.8210    8.0290 C.ar  113  HIS113      0.1986
     56  NE2       -8.9610  -17.8420    9.3470 N.ar  113  HIS113     -0.2212
     57  N         -9.7060  -12.3590   11.0170 N.am  114  SER114     -0.1952
     58  CA        -8.9990  -11.9500   12.2240 C.3   114  SER114      0.1924
     59  C         -8.9150  -10.4290   12.2890 C.2   114  SER114      0.2314
     60  O         -8.8200   -9.7680   11.2560 O.2   114  SER114     -0.2863
     61  CB        -7.5850  -12.5400   12.2010 C.3   114  SER114      0.2116
     62  OG        -6.6980  -11.8030   13.0230 O.3   114  SER114     -0.2180
     63  N         -6.4800   -8.6680   13.3270 N.3   116  MET116     -0.1245
     64  CA        -5.1070   -8.2170   13.1140 C.3   116  MET116      0.1570
     65  C         -4.7200   -7.9490   11.6600 C.2   116  MET116      0.2261
     66  O         -4.1400   -8.7950   10.9840 O.2   116  MET116     -0.2867
     67  CB        -4.1420   -9.2180   13.7460 C.3   116  MET116      0.0387
     68  CG        -4.3410   -9.3460   15.2490 C.3   116  MET116      0.0595
     69  SD        -3.1110  -10.4070   16.0020 S.3   116  MET116     -0.1393
     70  CE        -3.9350  -11.9780   15.9270 C.3   116  MET116      0.0692
     71  N         -3.0590   -6.8510    8.1910 N.3   118  LEU118     -0.1245
     72  CA        -1.7160   -7.0520    7.6690 C.3   118  LEU118      0.1561
     73  C         -1.5620   -6.1750    6.4280 C.2   118  LEU118      0.2260
     74  O         -2.5500   -5.7850    5.8060 O.2   118  LEU118     -0.2867
     75  CB        -1.5100   -8.5280    7.2980 C.3   118  LEU118      0.0270
     76  CG        -0.7520   -9.4800    8.2330 C.3   118  LEU118      0.0019
     77  CD1       -1.0230   -9.1470    9.6890 C.3   118  LEU118      0.0001
     78  CD2       -1.1660  -10.9160    7.9220 C.3   118  LEU118      0.0001
     79  N         -0.0590  -13.5410    1.3960 N.3   124  LEU124     -0.1231
     80  CA        -0.7900  -13.7640    2.6410 C.3   124  LEU124      0.1693
     81  C         -0.0200  -13.4100    3.9110 C.2   124  LEU124      0.2592
     82  O         -0.6170  -13.0360    4.9170 O.2   124  LEU124     -0.2718
     83  CB        -1.2670  -15.2200    2.7050 C.3   124  LEU124      0.0284
     84  CG        -2.7120  -15.4900    2.2470 C.3   124  LEU124      0.0019
     85  CD1       -3.0880  -14.5760    1.0900 C.3   124  LEU124      0.0001
     86  CD2       -2.8490  -16.9450    1.8370 C.3   124  LEU124      0.0001
     87  N          1.3020  -13.5270    3.8650 N.am  125  SER125     -0.1952
     88  CA         2.1280  -13.2030    5.0230 C.3   125  SER125      0.1924
     89  C          3.2400  -12.2450    4.6150 C.2   125  SER125      0.2314
     90  O          4.3650  -12.6610    4.3270 O.2   125  SER125     -0.2863
     91  CB         2.7380  -14.4730    5.6230 C.3   125  SER125      0.2116
     92  OG         3.3130  -14.2110    6.8950 O.3   125  SER125     -0.2180
     93  N          6.5920  -10.0950   10.1130 N.3   133  VAL133     -0.1245
     94  CA         5.3340   -9.9110    9.4040 C.3   133  VAL133      0.1561
     95  C          4.9300   -8.4520    9.5500 C.2   133  VAL133      0.2260
     96  O          4.9970   -7.8880   10.6460 O.2   133  VAL133     -0.2867
     97  CB         4.2070  -10.8020    9.9830 C.3   133  VAL133      0.0252
     98  CG1        2.9150  -10.5790    9.1990 C.3   133  VAL133      0.0019
     99  CG2        4.6190  -12.2680    9.9240 C.3   133  VAL133      0.0019
    100  N        -12.1860  -14.5430   15.7270 N.3   163  ASN163     -0.1240
    101  CA       -11.0700  -14.1900   16.6060 C.3   163  ASN163      0.1653
    102  C        -11.1740  -12.8030   17.2410 C.2   163  ASN163      0.2266
    103  O        -10.1550  -12.1710   17.5240 O.2   163  ASN163     -0.2867
    104  CB        -9.7460  -14.3160   15.8440 C.3   163  ASN163      0.1155
    105  CG        -9.4550  -15.7490   15.4110 C.2   163  ASN163      0.2627
    106  OD1       -9.3530  -16.6510   16.2430 O.2   163  ASN163     -0.2716
    107  ND2       -9.3230  -15.9630   14.1040 N.am  163  ASN163     -0.0877
    108  N        -13.8510  -23.3600   16.9940 N.3   212  TYR212     -0.1241
    109  CA       -12.8860  -24.0480   16.1540 C.3   212  TYR212      0.1605
    110  C        -11.8410  -24.6680   17.0940 C.2   212  TYR212      0.2264
    111  O        -11.7060  -24.2510   18.2510 O.2   212  TYR212     -0.2867
    112  CB       -12.2570  -23.1170   15.1040 C.3   212  TYR212      0.0534
    113  CG       -11.3040  -22.0540   15.6000 C.ar  212  TYR212     -0.0201
    114  CD1      -11.6380  -20.7060   15.4990 C.ar  212  TYR212     -0.0009
    115  CD2      -10.0310  -22.3880   16.0710 C.ar  212  TYR212     -0.0009
    116  CE1      -10.7290  -19.7090   15.8400 C.ar  212  TYR212      0.0417
    117  CE2       -9.1050  -21.3910   16.4210 C.ar  212  TYR212      0.0417
    118  CZ        -9.4650  -20.0590   16.2950 C.ar  212  TYR212      0.1957
    119  OH        -8.5570  -19.0690   16.5810 O.3   212  TYR212     -0.2866
    120  N          2.9000  -24.2010   14.6270 N.3   223  TRP223     -0.1241
    121  CA         2.2680  -23.1970   15.4780 C.3   223  TRP223      0.1605
    122  C          1.7440  -23.7700   16.7810 C.2   223  TRP223      0.2264
    123  O          1.1440  -23.0510   17.5800 O.2   223  TRP223     -0.2867
    124  CB         1.1090  -22.5220   14.7400 C.3   223  TRP223      0.0550
    125  CG         0.8890  -23.0400   13.3600 C.ar  223  TRP223      0.0003
    126  CD1        0.3370  -24.2390   13.0110 C.ar  223  TRP223      0.0946
    127  CD2        1.2410  -22.3880   12.1360 C.ar  223  TRP223      0.0152
    128  NE1        0.3260  -24.3760   11.6430 N.ar  223  TRP223     -0.2442
    129  CE2        0.8750  -23.2530   11.0810 C.ar  223  TRP223      0.0810
    130  CE3        1.8310  -21.1540   11.8280 C.ar  223  TRP223      0.0012
    131  CZ2        1.0810  -22.9250    9.7360 C.ar  223  TRP223      0.0191
    132  CZ3        2.0370  -20.8260   10.4900 C.ar  223  TRP223      0.0001
    133  CH2        1.6620  -21.7110    9.4610 C.ar  223  TRP223      0.0015
    134  N         -2.9650  -22.3860   19.2300 N.3   302  PHE302     -0.1241
    135  CA        -2.1620  -21.6520   18.2580 C.3   302  PHE302      0.1605
    136  C         -1.1350  -20.7450   18.9310 C.2   302  PHE302      0.2264
    137  O         -1.4750  -19.9180   19.7830 O.2   302  PHE302     -0.2867
    138  CB        -3.0520  -20.8070   17.3380 C.3   302  PHE302      0.0534
    139  CG        -2.2770  -19.9090   16.3960 C.ar  302  PHE302     -0.0203
    140  CD1       -2.4790  -18.5290   16.4000 C.ar  302  PHE302     -0.0042
    141  CD2       -1.3440  -20.4430   15.5100 C.ar  302  PHE302     -0.0042
    142  CE1       -1.7650  -17.6970   15.5350 C.ar  302  PHE302     -0.0003
    143  CE2       -0.6250  -19.6190   14.6420 C.ar  302  PHE302     -0.0003
    144  CZ        -0.8360  -18.2450   14.6550 C.ar  302  PHE302     -0.0000
    145  N          0.3570  -17.8450   19.1910 N.3   304  SER304     -0.1217
    146  CA         0.1230  -16.4760   18.7310 C.3   304  SER304      0.1889
    147  C          1.0340  -15.4490   19.3920 C.2   304  SER304      0.2288
    148  O          0.7540  -14.2530   19.3570 O.2   304  SER304     -0.2866
    149  CB        -1.3310  -16.0900   18.9920 C.3   304  SER304      0.2089
    150  OG        -1.8160  -16.7290   20.1600 O.3   304  SER304     -0.2183
    151  N          2.4990  -12.3930   17.3010 N.3   307  PHE307     -0.1241
    152  CA         1.6100  -11.2830   16.9740 C.3   307  PHE307      0.1605
    153  C          1.1420  -10.5490   18.2220 C.2   307  PHE307      0.2264
    154  O          0.3830   -9.5810   18.1380 O.2   307  PHE307     -0.2867
    155  CB         0.3920  -11.8030   16.2100 C.3   307  PHE307      0.0534
    156  CG         0.7270  -12.3890   14.8750 C.ar  307  PHE307     -0.0203
    157  CD1        1.2330  -13.6830   14.7780 C.ar  307  PHE307     -0.0042
    158  CD2        0.5590  -11.6430   13.7120 C.ar  307  PHE307     -0.0042
    159  CE1        1.5690  -14.2260   13.5410 C.ar  307  PHE307     -0.0003
    160  CE2        0.8920  -12.1750   12.4690 C.ar  307  PHE307     -0.0003
    161  CZ         1.3990  -13.4700   12.3830 C.ar  307  PHE307     -0.0000
    162  N         -4.2190   -7.5340   18.6720 N.3   313  TYR313     -0.1228
    163  CA        -4.0740   -8.8450   19.3050 C.3   313  TYR313      0.1721
    164  C         -5.2850   -9.0060   20.2330 C.2   313  TYR313      0.2437
    165  O         -5.4670   -8.2400   21.1840 O.2   313  TYR313     -0.2733
    166  CB        -2.7730   -8.8950   20.1080 C.3   313  TYR313      0.0547
    167  CG        -2.4100  -10.2740   20.5970 C.ar  313  TYR313     -0.0200
    168  CD1       -2.3880  -10.5650   21.9590 C.ar  313  TYR313     -0.0009
    169  CD2       -2.0730  -11.2860   19.6980 C.ar  313  TYR313     -0.0009
    170  CE1       -2.0330  -11.8300   22.4170 C.ar  313  TYR313      0.0417
    171  CE2       -1.7190  -12.5500   20.1420 C.ar  313  TYR313      0.0417
    172  CZ        -1.6990  -12.8160   21.5050 C.ar  313  TYR313      0.1957
    173  OH        -1.3290  -14.0650   21.9540 O.3   313  TYR313     -0.2866
    174  N         -6.1220  -10.0190   19.9750 N.am  314  PRO314     -0.2718
    175  CA        -7.3260  -10.2590   20.7770 C.3   314  PRO314      0.1535
    176  C         -7.1690  -10.7600   22.2060 C.2   314  PRO314      0.2598
    177  O         -8.0770  -10.5930   23.0190 O.2   314  PRO314     -0.2715
    178  CB        -8.1270  -11.2400   19.9210 C.3   314  PRO314      0.0310
    179  CG        -7.0910  -11.9900   19.1650 C.3   314  PRO314      0.0237
    180  CD        -5.9580  -11.0260   18.9110 C.3   314  PRO314      0.0939
    181  N         -6.0310  -11.3680   22.5140 N.am  315  TYR315     -0.1974
    182  CA        -5.8130  -11.9150   23.8470 C.3   315  TYR315      0.1639
    183  C         -5.2030  -10.9450   24.8490 C.2   315  TYR315      0.2290
    184  O         -4.6160  -11.3590   25.8490 O.2   315  TYR315     -0.2864
    185  CB        -4.9600  -13.1780   23.7460 C.3   315  TYR315      0.0560
    186  CG        -5.6450  -14.2910   22.9820 C.ar  315  TYR315     -0.0198
    187  CD1       -7.0190  -14.5070   23.1080 C.ar  315  TYR315     -0.0009
    188  CD2       -4.9200  -15.1230   22.1240 C.ar  315  TYR315     -0.0009
    189  CE1       -7.6560  -15.5240   22.3980 C.ar  315  TYR315      0.0417
    190  CE2       -5.5440  -16.1420   21.4110 C.ar  315  TYR315      0.0417
    191  CZ        -6.9120  -16.3370   21.5510 C.ar  315  TYR315      0.1957
    192  OH        -7.5330  -17.3380   20.8350 O.3   315  TYR315     -0.2866
@<TRIPOS>BOND
     1    85    84    1
     2    79    80    1
     3    86    84    1
     4    24    23    2
     5    23    22    1
     6    84    83    1
     7    80    83    1
     8    80    81    1
     9    13    14    1
    10    16    15    2
    11    22    21    1
    12    22    25    1
    13    21    15   am
    14    15    14    1
    15    14    17    1
    16    25    26    1
    17    87    81   am
    18    87    88    1
    19    81    82    2
    20    37    38    1
    21    37    34    1
    22    39    38   ar
    23    39    41   ar
    24    33    34    1
    25    90    89    2
    26    89    88    1
    27    38    40   ar
    28    36    35    2
    29    34    35    1
    30    88    91    1
    31    17    18    1
    32    26    27   ar
    33    26    28   ar
    34    41    42   ar
    35    19    18    1
    36    27    29   ar
    37    91    92    1
    38    74    73    2
    39    18    20    1
    40    28    30   ar
    41    40    42   ar
    42    40    43   ar
    43    42    44   ar
    44     9     7   ar
    45     9    11   ar
    46    73    72    1
    47     7     6   ar
    48     2     1    1
    49     2     3    1
    50     2     5    1
    51    29    31   ar
    52     3     4    2
    53    12    11    1
    54    43    45   ar
    55    11    10   ar
    56    30    31   ar
    57    75    72    1
    58    75    76    1
    59    44    46   ar
    60     6     5    1
    61     6     8   ar
    62    53    55   ar
    63    53    52   ar
    64    31    32    1
    65    72    71    1
    66    78    76    1
    67    55    56   ar
    68    10     8   ar
    69    45    46   ar
    70    76    77    1
    71    51    52    1
    72    51    48    1
    73    52    54   ar
    74    47    48    1
    75    98    97    1
    76    56    54   ar
    77    94    95    1
    78    94    97    1
    79    94    93    1
    80   133   131   ar
    81   133   132   ar
    82    95    96    2
    83    48    49    1
    84   131   129   ar
    85    99    97    1
    86   132   130   ar
    87    49    57   am
    88    49    50    2
    89    66    65    2
    90    57    58    1
    91   129   128   ar
    92   129   127   ar
    93    60    59    2
    94   128   126   ar
    95    65    64    1
    96   130   127   ar
    97   127   125   ar
    98    61    58    1
    99    61    62    1
   100    58    59    1
   101   161   160   ar
   102   161   159   ar
   103   160   158   ar
   104   126   125   ar
   105    64    63    1
   106    64    67    1
   107   125   124    1
   108   159   157   ar
   109   158   156   ar
   110    67    68    1
   111   107   105   am
   112   120   121    1
   113   143   144   ar
   114   143   141   ar
   115   144   142   ar
   116   124   121    1
   117   157   156   ar
   118   156   155    1
   119   112   113    1
   120   112   109    1
   121    68    69    1
   122   105   104    1
   123   105   106    2
   124   121   122    1
   125   114   113   ar
   126   114   116   ar
   127   141   139   ar
   128   142   140   ar
   129   113   115   ar
   130   100   101    1
   131   116   118   ar
   132   104   101    1
   133    70    69    1
   134   115   117   ar
   135   109   108    1
   136   109   110    1
   137   155   152    1
   138   118   117   ar
   139   118   119    1
   140   139   140   ar
   141   139   138    1
   142   101   102    1
   143   122   123    2
   144   152   151    1
   145   152   153    1
   146   110   111    2
   147   102   103    2
   148   138   135    1
   149   154   153    2
   150   135   136    1
   151   135   134    1
   152   162   163    1
   153   146   149    1
   154   146   145    1
   155   146   147    1
   156   180   179    1
   157   180   174    1
   158   136   137    2
   159   149   150    1
   160   179   178    1
   161   163   166    1
   162   163   164    1
   163   148   147    2
   164   169   171   ar
   165   169   167   ar
   166   178   175    1
   167   174   164   am
   168   174   175    1
   169   166   167    1
   170   171   172   ar
   171   164   165    2
   172   167   168   ar
   173   175   176    1
   174   192   191    1
   175   190   191   ar
   176   190   188   ar
   177   172   173    1
   178   172   170   ar
   179   191   189   ar
   180   168   170   ar
   181   188   186   ar
   182   176   181   am
   183   176   177    2
   184   189   187   ar
   185   181   182    1
   186   186   187   ar
   187   186   185    1
   188   185   182    1
   189   182   183    1
   190   183   184    2
