@<TRIPOS>MOLECULE
tmp/1ry2A00.pdb
 174 171 0 0 0
SMALL
GASTEIGER

@<TRIPOS>ATOM
      1  N         96.9580   27.0140  -10.9480 N.3   247  THR247     -0.1218
      2  CA        96.3180   28.2860  -10.6500 C.3   247  THR247      0.1862
      3  C         96.2390   29.0790  -11.9420 C.2   247  THR247      0.2287
      4  O         97.2400   29.2410  -12.6430 O.2   247  THR247     -0.2866
      5  CB        97.1250   29.0970   -9.6400 C.3   247  THR247      0.1770
      6  OG1       97.4030   28.2880   -8.4930 O.3   247  THR247     -0.2211
      7  CG2       96.3360   30.3200   -9.2000 C.3   247  THR247      0.0375
      8  N         89.1630   24.9410   -7.4670 N.3   292  TRP292     -0.1227
      9  CA        90.1650   25.7150   -6.7520 C.3   292  TRP292      0.1737
     10  C         90.3190   25.2360   -5.3190 C.2   292  TRP292      0.2595
     11  O         89.4440   24.5430   -4.7900 O.2   292  TRP292     -0.2718
     12  CB        89.8590   27.2160   -6.8150 C.3   292  TRP292      0.0564
     13  CG        88.5490   27.6560   -6.2800 C.ar  292  TRP292      0.0003
     14  CD1       87.3430   27.0490   -6.4560 C.ar  292  TRP292      0.0946
     15  CD2       88.2890   28.8790   -5.5810 C.ar  292  TRP292      0.0152
     16  NE1       86.3340   27.8240   -5.9180 N.ar  292  TRP292     -0.2442
     17  CE2       86.8880   28.9530   -5.3740 C.ar  292  TRP292      0.0810
     18  CE3       89.1000   29.9220   -5.1150 C.ar  292  TRP292      0.0012
     19  CZ2       86.2800   30.0290   -4.7180 C.ar  292  TRP292      0.0191
     20  CZ3       88.4980   30.9970   -4.4620 C.ar  292  TRP292      0.0001
     21  CH2       87.0960   31.0410   -4.2690 C.ar  292  TRP292      0.0015
     22  N         91.4550   25.5820   -4.7180 N.am  293  ILE293     -0.1980
     23  CA        91.7930   25.1910   -3.3500 C.3   293  ILE293      0.1595
     24  C         90.6320   25.2540   -2.3890 C.2   293  ILE293      0.2287
     25  O         90.5780   24.5020   -1.4270 O.2   293  ILE293     -0.2864
     26  CB        92.9150   26.0630   -2.7640 C.3   293  ILE293      0.0276
     27  CG1       92.9700   27.3980   -3.5030 C.3   293  ILE293      0.0022
     28  CG2       94.2380   25.3050   -2.8100 C.3   293  ILE293      0.0022
     29  CD1       91.6790   28.1640   -3.4860 C.3   293  ILE293      0.0001
     30  N         83.3770   33.8820    4.3580 N.3   368  SER368     -0.1202
     31  CA        83.6050   34.5470    3.0880 C.3   368  SER368      0.2020
     32  C         85.0450   34.2800    2.6660 C.2   368  SER368      0.2619
     33  O         85.9500   34.3030    3.4970 O.2   368  SER368     -0.2717
     34  CB        83.3710   36.0540    3.2230 C.3   368  SER368      0.2103
     35  OG        83.5520   36.7010    1.9780 O.3   368  SER368     -0.2182
     36  N         85.2400   34.0260    1.3730 N.am  369  VAL369     -0.1965
     37  CA        86.5600   33.7470    0.8140 C.3   369  VAL369      0.1727
     38  C         86.6020   34.1420   -0.6640 C.2   369  VAL369      0.2617
     39  O         85.5650   34.2730   -1.3030 O.2   369  VAL369     -0.2715
     40  CB        86.9030   32.2320    0.9550 C.3   369  VAL369      0.0290
     41  CG1       85.7510   31.3820    0.3950 C.3   369  VAL369      0.0023
     42  CG2       88.2240   31.9120    0.2480 C.3   369  VAL369      0.0023
     43  N         87.7980   34.3390   -1.2050 N.am  370  GLY370     -0.1940
     44  CA        87.9150   34.6980   -2.6080 C.3   370  GLY370      0.2014
     45  C         88.4440   36.0970   -2.8500 C.2   370  GLY370      0.2639
     46  O         89.4300   36.2790   -3.5600 O.2   370  GLY370     -0.2714
     47  N         87.7840   37.0950   -2.2730 N.am  371  GLU371     -0.1963
     48  CA        88.2180   38.4740   -2.4410 C.3   371  GLU371      0.1718
     49  C         87.6450   39.3770   -1.3600 C.2   371  GLU371      0.2458
     50  O         86.7950   38.9560   -0.5810 O.2   371  GLU371     -0.2730
     51  CB        87.8290   38.9820   -3.8320 C.3   371  GLU371      0.0428
     52  CG        86.3570   38.9910   -4.1320 C.3   371  GLU371      0.1163
     53  CD        86.0910   39.3800   -5.5700 C.2   371  GLU371      0.3649
     54  OE1       86.6340   40.4160   -6.0130 O.co2 371  GLU371     -0.2457
     55  OE2       85.3440   38.6530   -6.2600 O.co2 371  GLU371     -0.2457
     56  N         88.1150   40.6320   -1.2890 N.am  372  PRO372     -0.2727
     57  CA        87.6200   41.5650   -0.2740 C.3   372  PRO372      0.1402
     58  C         86.1010   41.6470   -0.2400 C.2   372  PRO372      0.2269
     59  O         85.4500   41.5680   -1.2770 O.2   372  PRO372     -0.2865
     60  CB        88.2550   42.8880   -0.6880 C.3   372  PRO372      0.0296
     61  CG        89.5420   42.4640   -1.2920 C.3   372  PRO372      0.0237
     62  CD        89.1160   41.2890   -2.1480 C.3   372  PRO372      0.0939
     63  N         85.6940   35.9020    7.5060 N.3   394  ASP394     -0.1225
     64  CA        86.1300   36.3520    6.1910 C.3   394  ASP394      0.1805
     65  C         87.5450   35.8210    6.1280 C.2   394  ASP394      0.2598
     66  O         88.4860   36.4460    6.6160 O.2   394  ASP394     -0.2718
     67  CB        86.0880   37.8860    6.1240 C.3   394  ASP394      0.1424
     68  CG        86.7850   38.4420    4.8940 C.2   394  ASP394      0.3668
     69  OD1       86.6250   37.8670    3.7940 O.co2 394  ASP394     -0.2456
     70  OD2       87.4860   39.4650    5.0310 O.co2 394  ASP394     -0.2456
     71  N         87.6630   34.6380    5.5350 N.am  395  THR395     -0.1939
     72  CA        88.9110   33.8850    5.4140 C.3   395  THR395      0.2028
     73  C         89.9310   34.2900    4.3480 C.2   395  THR395      0.2642
     74  O         89.6930   34.0800    3.1610 O.2   395  THR395     -0.2714
     75  CB        88.5680   32.4300    5.1620 C.3   395  THR395      0.1808
     76  OG1       88.0470   32.2960    3.8310 O.3   395  THR395     -0.2208
     77  CG2       87.4990   31.9730    6.1440 C.3   395  THR395      0.0379
     78  N         91.0750   34.8350    4.7680 N.am  396  TYR396     -0.1959
     79  CA        92.1390   35.2250    3.8320 C.3   396  TYR396      0.1771
     80  C         93.1370   34.0840    3.5970 C.2   396  TYR396      0.2620
     81  O         93.7240   33.5400    4.5450 O.2   396  TYR396     -0.2715
     82  CB        92.9140   36.4540    4.3480 C.3   396  TYR396      0.0574
     83  CG        94.1290   36.8020    3.4900 C.ar  396  TYR396     -0.0198
     84  CD1       93.9810   37.2050    2.1670 C.ar  396  TYR396     -0.0009
     85  CD2       95.4140   36.6450    3.9760 C.ar  396  TYR396     -0.0009
     86  CE1       95.0750   37.4300    1.3560 C.ar  396  TYR396      0.0417
     87  CE2       96.5210   36.8690    3.1640 C.ar  396  TYR396      0.0417
     88  CZ        96.3400   37.2590    1.8540 C.ar  396  TYR396      0.1957
     89  OH        97.4310   37.4720    1.0400 O.3   396  TYR396     -0.2866
     90  N         93.3290   33.7200    2.3350 N.am  397  TRP397     -0.1960
     91  CA        94.2720   32.6600    1.9900 C.3   397  TRP397      0.1771
     92  C         94.3050   32.4200    0.4900 C.2   397  TRP397      0.2620
     93  O         93.3960   32.8360   -0.2400 O.2   397  TRP397     -0.2715
     94  CB        93.9310   31.3610    2.7110 C.3   397  TRP397      0.0590
     95  CG        92.6690   30.7420    2.2450 C.ar  397  TRP397      0.0006
     96  CD1       91.4240   31.2860    2.3000 C.ar  397  TRP397      0.0946
     97  CD2       92.5220   29.4440    1.6610 C.ar  397  TRP397      0.0152
     98  NE1       90.5020   30.3990    1.7930 N.ar  397  TRP397     -0.2442
     99  CE2       91.1510   29.2610    1.3930 C.ar  397  TRP397      0.0810
    100  CE3       93.4190   28.4150    1.3430 C.ar  397  TRP397      0.0012
    101  CZ2       90.6470   28.0910    0.8160 C.ar  397  TRP397      0.0191
    102  CZ3       92.9140   27.2360    0.7660 C.ar  397  TRP397      0.0001
    103  CH2       91.5410   27.0910    0.5130 C.ar  397  TRP397      0.0015
    104  N         95.3480   31.7160    0.0590 N.am  398  GLN398     -0.1963
    105  CA        95.5960   31.4430   -1.3480 C.3   398  GLN398      0.1733
    106  C         95.7180   29.9570   -1.7080 C.2   398  GLN398      0.2617
    107  O         95.7420   29.0810   -0.8370 O.2   398  GLN398     -0.2715
    108  CB        96.8890   32.1610   -1.7330 C.3   398  GLN398      0.0408
    109  CG        96.9950   33.5660   -1.1190 C.3   398  GLN398      0.0908
    110  CD        98.3870   34.1930   -1.2650 C.2   398  GLN398      0.2608
    111  OE1       99.3580   33.7750   -0.6080 O.2   398  GLN398     -0.2717
    112  NE2       98.4860   35.1940   -2.1350 N.am  398  GLN398     -0.0878
    113  N         95.7970   29.6830   -3.0090 N.am  399  THR399     -0.1937
    114  CA        95.9660   28.3200   -3.4990 C.3   399  THR399      0.2028
    115  C         97.3040   27.7980   -2.9640 C.2   399  THR399      0.2642
    116  O         97.4800   26.5990   -2.7320 O.2   399  THR399     -0.2714
    117  CB        96.0370   28.2800   -5.0450 C.3   399  THR399      0.1808
    118  OG1       94.8580   28.8670   -5.6130 O.3   399  THR399     -0.2208
    119  CG2       96.1680   26.8340   -5.5230 C.3   399  THR399      0.0379
    120  N         98.2520   28.7110   -2.7790 N.am  400  GLU400     -0.1976
    121  CA        99.5730   28.3340   -2.2880 C.3   400  GLU400      0.1602
    122  C         99.5760   28.1590   -0.7790 C.2   400  GLU400      0.2287
    123  O        100.3560   27.3710   -0.2300 O.2   400  GLU400     -0.2864
    124  CB       100.6180   29.3970   -2.6460 C.3   400  GLU400      0.0415
    125  CG       100.8490   29.6150   -4.1340 C.3   400  GLU400      0.1163
    126  CD        99.9300   30.6490   -4.7450 C.2   400  GLU400      0.3649
    127  OE1      100.1410   30.9830   -5.9280 O.co2 400  GLU400     -0.2457
    128  OE2       99.0010   31.1260   -4.0590 O.co2 400  GLU400     -0.2457
    129  N         99.6200   40.6000   -2.0820 N.3   486  ASP486     -0.1239
    130  CA        98.6090   41.5690   -1.6710 C.3   486  ASP486      0.1674
    131  C         99.1300   42.6630   -0.7380 C.2   486  ASP486      0.2266
    132  O        100.2150   42.5520   -0.1530 O.2   486  ASP486     -0.2867
    133  CB        97.4520   40.8680   -0.9780 C.3   486  ASP486      0.1410
    134  CG        96.7170   39.9220   -1.8890 C.2   486  ASP486      0.3668
    135  OD1       97.0640   38.7160   -1.9390 O.co2 486  ASP486     -0.2456
    136  OD2       95.7800   40.3940   -2.5600 O.co2 486  ASP486     -0.2456
    137  N         92.9060   43.4170    4.3100 N.3   498  ILE498     -0.1245
    138  CA        93.4280   43.0820    2.9990 C.3   498  ILE498      0.1561
    139  C         93.0460   44.2100    2.0330 C.2   498  ILE498      0.2260
    140  O         91.8610   44.5310    1.8730 O.2   498  ILE498     -0.2867
    141  CB        92.8390   41.7430    2.5080 C.3   498  ILE498      0.0252
    142  CG1       93.0850   40.6570    3.5600 C.3   498  ILE498      0.0019
    143  CG2       93.4940   41.3330    1.1960 C.3   498  ILE498      0.0019
    144  CD1       94.5700   40.4250    3.8760 C.3   498  ILE498      0.0001
    145  N         93.5920   44.2470   -1.2850 N.3   500  GLY500     -0.1210
    146  CA        93.2830   43.8140   -2.6400 C.3   500  GLY500      0.1956
    147  C         94.3760   43.6210   -3.6800 C.2   500  GLY500      0.2611
    148  O         94.2050   44.0250   -4.8320 O.2   500  GLY500     -0.2717
    149  N         95.4900   43.0040   -3.3020 N.am  501  ARG501     -0.1979
    150  CA        96.5660   42.7550   -4.2610 C.3   501  ARG501      0.1597
    151  C         97.1930   44.0370   -4.7960 C.2   501  ARG501      0.2287
    152  O         96.6800   44.6500   -5.7370 O.2   501  ARG501     -0.2864
    153  CB        96.0150   41.9100   -5.4170 C.3   501  ARG501      0.0334
    154  CG        96.9920   41.6060   -6.5380 C.3   501  ARG501      0.0492
    155  CD        96.4900   40.4360   -7.3770 C.3   501  ARG501      0.2205
    156  NE        96.5110   39.1870   -6.6200 N.pl3 501  ARG501     -0.0865
    157  CZ        97.6010   38.4500   -6.4130 C.cat 501  ARG501      0.5346
    158  NH1       98.7660   38.8300   -6.9090 N.pl3 501  ARG501      0.1354
    159  NH2       97.5280   37.3290   -5.7060 N.pl3 501  ARG501      0.1354
    160  N         86.1000   31.2000  -10.7620 N.3   588  SER588     -0.1217
    161  CA        86.2650   31.2590   -9.3120 C.3   588  SER588      0.1889
    162  C         85.4590   32.3970   -8.7020 C.2   588  SER588      0.2288
    163  O         84.9720   32.2870   -7.5770 O.2   588  SER588     -0.2866
    164  CB        87.7400   31.4440   -8.9560 C.3   588  SER588      0.2089
    165  OG        88.5030   30.3310   -9.3760 O.3   588  SER588     -0.2183
    166  N         86.6740   35.8420   -8.8410 N.3   590  LYS590     -0.1245
    167  CA        87.5630   37.0000   -8.8530 C.3   590  LYS590      0.1561
    168  C         87.4080   37.8550  -10.1100 C.2   590  LYS590      0.2260
    169  O         87.1960   37.3360  -11.2040 O.2   590  LYS590     -0.2867
    170  CB        89.0150   36.5360   -8.7110 C.3   590  LYS590      0.0271
    171  CG        89.2390   35.7800   -7.3950 C.3   590  LYS590      0.0035
    172  CD        90.7010   35.5110   -7.1170 C.3   590  LYS590      0.0206
    173  CE        91.0290   34.0330   -7.2980 C.3   590  LYS590      0.1093
    174  NZ        90.9260   33.3000   -6.0090 N.3   590  LYS590     -0.1314
@<TRIPOS>BOND
     1     4     3    2
     2     3     2    1
     3   169   168    2
     4     1     2    1
     5   160   161    1
     6     2     5    1
     7   168   167    1
     8     5     7    1
     9     5     6    1
    10   165   164    1
    11   161   164    1
    12   161   162    1
    13   167   166    1
    14   167   170    1
    15   170   171    1
    16   162   163    2
    17     8     9    1
    18   171   172    1
    19   155   156    1
    20   155   154    1
    21   173   172    1
    22   173   174    1
    23   158   157    1
    24    12     9    1
    25    12    13    1
    26     9    10    1
    27   156   157    2
    28   154   153    1
    29    14    13   ar
    30    14    16   ar
    31   157   159    1
    32    13    15   ar
    33    55    53   ar
    34    54    53   ar
    35   127   126   ar
    36    16    17   ar
    37   152   151    2
    38   118   117    1
    39    15    17   ar
    40    15    18   ar
    41    53    52    1
    42   119   117    1
    43   153   150    1
    44    17    19   ar
    45    10    11    2
    46    10    22   am
    47    18    20   ar
    48   117   114    1
    49   148   147    2
    50   151   150    1
    51   126   125    1
    52   126   128   ar
    53    22    23    1
    54    19    21   ar
    55    20    21   ar
    56   150   149    1
    57   125   124    1
    58    52    51    1
    59    51    48    1
    60   147   149   am
    61   147   146    1
    62    46    45    2
    63    27    29    1
    64    27    26    1
    65   114   113    1
    66   114   115    1
    67    23    26    1
    68    23    24    1
    69   113   106   am
    70   115   120   am
    71   115   116    2
    72    45    44    1
    73    45    47   am
    74    28    26    1
    75   120   121    1
    76   124   121    1
    77   146   145    1
    78    44    43    1
    79   136   134   ar
    80    48    47    1
    81    48    49    1
    82    24    25    2
    83   121   122    1
    84    62    61    1
    85    62    56    1
    86   112   110   am
    87   129   130    1
    88   135   134   ar
    89   134   133    1
    90   108   105    1
    91   108   109    1
    92   106   105    1
    93   106   107    2
    94   130   133    1
    95   130   131    1
    96    49    56   am
    97    49    50    2
    98   105   104    1
    99    39    38    2
   100    61    60    1
   101    56    57    1
   102    59    58    2
   103   110   109    1
   104   110   111    2
   105    43    38   am
   106   122   123    2
   107   131   132    2
   108    60    57    1
   109    38    37    1
   110    57    58    1
   111    93    92    2
   112   104    92   am
   113    42    40    1
   114    41    40    1
   115    92    91    1
   116   103   102   ar
   117   103   101   ar
   118   102   100   ar
   119    37    40    1
   120    37    36    1
   121   101    99   ar
   122    89    88    1
   123   143   141    1
   124   100    97   ar
   125    86    88   ar
   126    86    84   ar
   127    36    32   am
   128    99    97   ar
   129    99    98   ar
   130    97    95   ar
   131    98    96   ar
   132    88    87   ar
   133   140   139    2
   134    35    34    1
   135    91    90    1
   136    91    94    1
   137   139   138    1
   138    84    83   ar
   139    95    96   ar
   140    95    94    1
   141    90    80   am
   142   141   138    1
   143   141   142    1
   144    32    31    1
   145    32    33    2
   146   138   137    1
   147    31    34    1
   148    31    30    1
   149    74    73    2
   150    87    85   ar
   151    83    85   ar
   152    83    82    1
   153   142   144    1
   154    80    79    1
   155    80    81    2
   156    69    68   ar
   157    76    75    1
   158    79    82    1
   159    79    78    1
   160    73    78   am
   161    73    72    1
   162    68    70   ar
   163    68    67    1
   164    75    72    1
   165    75    77    1
   166    72    71    1
   167    71    65   am
   168    67    64    1
   169    65    64    1
   170    65    66    2
   171    64    63    1
