@<TRIPOS>MOLECULE
tmp/1ry8A01.pdb
 248 244 0 0 0
SMALL
GASTEIGER

@<TRIPOS>ATOM
      1  N         -9.5380  -27.1070    6.7620 N.3    20  TYR20      -0.1241
      2  CA        -8.1080  -26.8660    6.7050 C.3    20  TYR20       0.1605
      3  C         -7.2350  -28.1050    6.8440 C.2    20  TYR20       0.2264
      4  O         -7.4530  -28.9480    7.7140 O.2    20  TYR20      -0.2867
      5  CB        -7.6640  -25.8400    7.7490 C.3    20  TYR20       0.0534
      6  CG        -6.2000  -25.5050    7.5810 C.ar   20  TYR20      -0.0201
      7  CD1       -5.7920  -24.4730    6.7360 C.ar   20  TYR20      -0.0009
      8  CD2       -5.2130  -26.2950    8.1710 C.ar   20  TYR20      -0.0009
      9  CE1       -4.4440  -24.2410    6.4780 C.ar   20  TYR20       0.0417
     10  CE2       -3.8690  -26.0710    7.9160 C.ar   20  TYR20       0.0417
     11  CZ        -3.4900  -25.0450    7.0700 C.ar   20  TYR20       0.1957
     12  OH        -2.1550  -24.8210    6.8290 O.3    20  TYR20      -0.2866
     13  N         -2.8600  -28.9970    6.3440 N.3    22  PRO22      -0.2103
     14  CA        -1.5660  -28.3520    6.0900 C.3    22  PRO22       0.1489
     15  C         -1.1280  -28.4640    4.6290 C.2    22  PRO22       0.2417
     16  O         -1.6150  -29.3200    3.8910 O.2    22  PRO22      -0.2734
     17  CB        -0.6050  -29.0570    7.0490 C.3    22  PRO22       0.0282
     18  CG        -1.2920  -30.3250    7.4210 C.3    22  PRO22       0.0208
     19  CD        -2.7620  -30.0650    7.3510 C.3    22  PRO22       0.0893
     20  N         -0.1990  -27.5940    4.2000 N.am   23  PRO23      -0.2729
     21  CA         0.3280  -27.5600    2.8330 C.3    23  PRO23       0.1401
     22  C          0.8360  -28.8940    2.2940 C.2    23  PRO23       0.2269
     23  O          0.7870  -29.1350    1.0910 O.2    23  PRO23      -0.2865
     24  CB         1.4380  -26.5140    2.9030 C.3    23  PRO23       0.0296
     25  CG         1.0530  -25.6450    4.0350 C.3    23  PRO23       0.0237
     26  CD         0.4200  -26.5540    5.0410 C.3    23  PRO23       0.0939
     27  N         -7.2950  -18.1700    2.9470 N.3    50  LEU50      -0.1231
     28  CA        -6.0040  -18.6220    3.4460 C.3    50  LEU50       0.1693
     29  C         -5.7360  -20.1270    3.3030 C.2    50  LEU50       0.2592
     30  O         -4.5880  -20.5410    3.1700 O.2    50  LEU50      -0.2718
     31  CB        -5.8600  -18.2120    4.9160 C.3    50  LEU50       0.0284
     32  CG        -4.5690  -18.5780    5.6550 C.3    50  LEU50       0.0019
     33  CD1       -3.4240  -17.6550    5.2420 C.3    50  LEU50       0.0001
     34  CD2       -4.8290  -18.4770    7.1560 C.3    50  LEU50       0.0001
     35  N         -6.7930  -20.9360    3.3120 N.am   51  TYR51      -0.1976
     36  CA        -6.6620  -22.3960    3.2360 C.3    51  TYR51       0.1639
     37  C         -6.1750  -22.9800    1.9120 C.2    51  TYR51       0.2290
     38  O         -5.8090  -24.1550    1.8500 O.2    51  TYR51      -0.2864
     39  CB        -7.9990  -23.0580    3.6010 C.3    51  TYR51       0.0560
     40  CG        -8.5400  -22.6740    4.9630 C.ar   51  TYR51      -0.0198
     41  CD1       -9.7770  -23.1430    5.4000 C.ar   51  TYR51      -0.0009
     42  CD2       -7.8320  -21.8120    5.7950 C.ar   51  TYR51      -0.0009
     43  CE1      -10.3000  -22.7580    6.6300 C.ar   51  TYR51       0.0417
     44  CE2       -8.3420  -21.4220    7.0180 C.ar   51  TYR51       0.0417
     45  CZ        -9.5730  -21.8920    7.4340 C.ar   51  TYR51       0.1957
     46  OH       -10.0770  -21.4760    8.6430 O.3    51  TYR51      -0.2866
     47  N        -13.6640  -16.6490    4.4450 N.3    80  LYS80      -0.1245
     48  CA       -13.1430  -15.5960    5.3020 C.3    80  LYS80       0.1561
     49  C        -12.2280  -14.6220    4.5620 C.2    80  LYS80       0.2260
     50  O        -11.4230  -15.0090    3.7110 O.2    80  LYS80      -0.2867
     51  CB       -12.3780  -16.2250    6.4690 C.3    80  LYS80       0.0271
     52  CG       -13.1140  -17.3780    7.1340 C.3    80  LYS80       0.0035
     53  CD       -12.3340  -17.9170    8.3320 C.3    80  LYS80       0.0206
     54  CE       -13.0200  -19.1440    8.9330 C.3    80  LYS80       0.1093
     55  NZ       -12.6700  -20.3710    8.1730 N.3    80  LYS80      -0.1314
     56  N         -9.1310  -12.5190    4.3180 N.3    82  TRP82      -0.1241
     57  CA        -7.8090  -12.5300    4.9400 C.3    82  TRP82       0.1605
     58  C         -7.3690  -11.1130    5.3530 C.2    82  TRP82       0.2264
     59  O         -7.7770  -10.1130    4.7580 O.2    82  TRP82      -0.2867
     60  CB        -6.7720  -13.1790    4.0110 C.3    82  TRP82       0.0550
     61  CG        -5.4490  -13.3960    4.6920 C.ar   82  TRP82       0.0003
     62  CD1       -4.2180  -13.0340    4.2300 C.ar   82  TRP82       0.0946
     63  CD2       -5.2410  -13.9410    6.0020 C.ar   82  TRP82       0.0152
     64  NE1       -3.2540  -13.3130    5.1710 N.ar   82  TRP82      -0.2442
     65  CE2       -3.8530  -13.8710    6.2680 C.ar   82  TRP82       0.0810
     66  CE3       -6.0920  -14.4800    6.9780 C.ar   82  TRP82       0.0012
     67  CZ2       -3.2940  -14.3210    7.4760 C.ar   82  TRP82       0.0191
     68  CZ3       -5.5370  -14.9280    8.1820 C.ar   82  TRP82       0.0001
     69  CH2       -4.1500  -14.8430    8.4160 C.ar   82  TRP82       0.0015
     70  N        -11.4960  -12.7570    8.9030 N.3   113  HIS113     -0.1226
     71  CA       -10.6970  -13.8460    9.4720 C.3   113  HIS113      0.1752
     72  C        -10.0060  -13.5370   10.8040 C.2   113  HIS113      0.2596
     73  O         -9.9680  -14.3840   11.7000 O.2   113  HIS113     -0.2718
     74  CB        -9.6500  -14.3040    8.4530 C.3   113  HIS113      0.0759
     75  CG        -9.2730  -15.7510    8.5680 C.ar  113  HIS113      0.0818
     76  ND1       -8.9870  -16.5330    7.4700 N.ar  113  HIS113     -0.2268
     77  CD2       -9.1180  -16.5530    9.6500 C.ar  113  HIS113      0.1154
     78  CE1       -8.6710  -17.7530    7.8680 C.ar  113  HIS113      0.1986
     79  NE2       -8.7430  -17.7920    9.1870 N.ar  113  HIS113     -0.2212
     80  N         -9.4760  -12.3270   10.9280 N.am  114  SER114     -0.1952
     81  CA        -8.7640  -11.9100   12.1350 C.3   114  SER114      0.1924
     82  C         -8.7320  -10.3840   12.2080 C.2   114  SER114      0.2314
     83  O         -8.6950   -9.7120   11.1830 O.2   114  SER114     -0.2863
     84  CB        -7.3320  -12.4600   12.0870 C.3   114  SER114      0.2116
     85  OG        -6.4410  -11.7080   12.8930 O.3   114  SER114     -0.2180
     86  N         -6.3220   -8.5980   13.2050 N.3   116  MET116     -0.1245
     87  CA        -4.9510   -8.1290   13.0290 C.3   116  MET116      0.1570
     88  C         -4.5280   -7.8530   11.5940 C.2   116  MET116      0.2261
     89  O         -3.9340   -8.7000   10.9230 O.2   116  MET116     -0.2867
     90  CB        -3.9900   -9.1190   13.6890 C.3   116  MET116      0.0387
     91  CG        -4.1960   -9.1980   15.1980 C.3   116  MET116      0.0595
     92  SD        -2.9470  -10.1850   16.0310 S.3   116  MET116     -0.1393
     93  CE        -3.5780  -11.7980   15.7500 C.3   116  MET116      0.0692
     94  N          1.3230  -13.4520    3.7630 N.3   125  SER125     -0.1217
     95  CA         2.1590  -13.1890    4.9300 C.3   125  SER125      0.1889
     96  C          3.3130  -12.2700    4.5610 C.2   125  SER125      0.2288
     97  O          4.4360  -12.7270    4.3190 O.2   125  SER125     -0.2866
     98  CB         2.7170  -14.4830    5.5150 C.3   125  SER125      0.2089
     99  OG         3.4200  -14.2040    6.7170 O.3   125  SER125     -0.2183
    100  N        -12.0210  -14.5170   15.6730 N.3   163  ASN163     -0.1240
    101  CA       -10.8980  -14.1570   16.5360 C.3   163  ASN163      0.1653
    102  C        -11.0060  -12.7710   17.1730 C.2   163  ASN163      0.2266
    103  O         -9.9900  -12.1480   17.4760 O.2   163  ASN163     -0.2867
    104  CB        -9.5910  -14.2660   15.7510 C.3   163  ASN163      0.1155
    105  CG        -9.2440  -15.7030   15.3880 C.2   163  ASN163      0.2627
    106  OD1       -9.1040  -16.5580   16.2660 O.2   163  ASN163     -0.2716
    107  ND2       -9.1050  -15.9750   14.0930 N.am  163  ASN163     -0.0877
    108  N        -16.2910  -16.6030   15.3410 N.3   186  GLN186     -0.1245
    109  CA       -15.6470  -17.9050   15.3270 C.3   186  GLN186      0.1566
    110  C        -14.3030  -17.7960   16.0430 C.2   186  GLN186      0.2260
    111  O        -13.3950  -17.0870   15.6000 O.2   186  GLN186     -0.2867
    112  CB       -15.4350  -18.3780   13.8850 C.3   186  GLN186      0.0367
    113  CG       -14.8850  -19.7930   13.7710 C.3   186  GLN186      0.0905
    114  CD       -14.5560  -20.1870   12.3470 C.2   186  GLN186      0.2608
    115  OE1      -13.4110  -20.4910   12.0210 O.2   186  GLN186     -0.2717
    116  NE2      -15.5620  -20.1800   11.4890 N.am  186  GLN186     -0.0878
    117  N        -11.2520  -19.9600   18.8680 N.3   188  GLU188     -0.1245
    118  CA       -10.7600  -21.2350   19.3730 C.3   188  GLU188      0.1567
    119  C        -11.5600  -21.5200   20.6280 C.2   188  GLU188      0.2260
    120  O        -11.6140  -20.7040   21.5510 O.2   188  GLU188     -0.2867
    121  CB        -9.2780  -21.1730   19.7250 C.3   188  GLU188      0.0388
    122  CG        -8.7600  -22.5100   20.2200 C.3   188  GLU188      0.1160
    123  CD        -7.2640  -22.5380   20.4100 C.2   188  GLU188      0.3649
    124  OE1       -6.7890  -23.3490   21.2340 O.co2 188  GLU188     -0.2457
    125  OE2       -6.5600  -21.7570   19.7380 O.co2 188  GLU188     -0.2457
    126  N        -13.6820  -23.3410   16.9290 N.3   212  TYR212     -0.1241
    127  CA       -12.7070  -24.0050   16.0810 C.3   212  TYR212      0.1605
    128  C        -11.6690  -24.6500   17.0030 C.2   212  TYR212      0.2264
    129  O        -11.5150  -24.2420   18.1590 O.2   212  TYR212     -0.2867
    130  CB       -12.0720  -23.0450   15.0640 C.3   212  TYR212      0.0534
    131  CG       -11.1010  -22.0210   15.5860 C.ar  212  TYR212     -0.0201
    132  CD1      -11.3870  -20.6580   15.4850 C.ar  212  TYR212     -0.0009
    133  CD2       -9.8390  -22.3980   16.0530 C.ar  212  TYR212     -0.0009
    134  CE1      -10.4380  -19.6940   15.8140 C.ar  212  TYR212      0.0417
    135  CE2       -8.8820  -21.4420   16.3860 C.ar  212  TYR212      0.0417
    136  CZ        -9.1830  -20.0950   16.2550 C.ar  212  TYR212      0.1957
    137  OH        -8.2060  -19.1560   16.4950 O.3   212  TYR212     -0.2866
    138  N         -4.8990  -29.5900   15.2510 N.3   218  GLN218     -0.1245
    139  CA        -4.1520  -30.5880   14.5020 C.3   218  GLN218      0.1566
    140  C         -2.7450  -30.7630   15.0740 C.2   218  GLN218      0.2260
    141  O         -1.9710  -31.6010   14.6150 O.2   218  GLN218     -0.2867
    142  CB        -4.1170  -30.1980   13.0160 C.3   218  GLN218      0.0367
    143  CG        -5.5320  -30.0140   12.4370 C.3   218  GLN218      0.0905
    144  CD        -5.5940  -29.9350   10.9080 C.2   218  GLN218      0.2608
    145  OE1       -4.8320  -30.5940   10.2040 O.2   218  GLN218     -0.2717
    146  NE2       -6.5120  -29.1230   10.4000 N.am  218  GLN218     -0.0878
    147  N          0.2610  -29.1540   15.0050 N.3   220  ASP220     -0.1239
    148  CA         1.4170  -29.1610   14.1260 C.3   220  ASP220      0.1674
    149  C          2.5830  -28.6050   14.9270 C.2   220  ASP220      0.2266
    150  O          2.4590  -27.5600   15.5660 O.2   220  ASP220     -0.2867
    151  CB         1.1650  -28.2850   12.9100 C.3   220  ASP220      0.1410
    152  CG         2.2410  -28.4340   11.8560 C.2   220  ASP220      0.3668
    153  OD1        3.2660  -27.7370   11.9620 O.co2 220  ASP220     -0.2456
    154  OD2        2.0630  -29.2450   10.9210 O.co2 220  ASP220     -0.2456
    155  N          4.8500  -26.9290   14.1760 N.3   222  ARG222     -0.1231
    156  CA         5.2770  -25.6180   13.7110 C.3   222  ARG222      0.1694
    157  C          4.5480  -24.4800   14.4190 C.2   222  ARG222      0.2592
    158  O          5.0100  -23.3410   14.3970 O.2   222  ARG222     -0.2718
    159  CB         5.0550  -25.4920   12.2020 C.3   222  ARG222      0.0321
    160  CG         6.0920  -26.2040   11.3470 C.3   222  ARG222      0.0489
    161  CD         5.7570  -26.0710    9.8660 C.3   222  ARG222      0.2205
    162  NE         4.4650  -26.6740    9.5430 N.pl3 222  ARG222     -0.0865
    163  CZ         4.0250  -26.8900    8.3060 C.cat 222  ARG222      0.5346
    164  NH1        4.7720  -26.5520    7.2620 N.pl3 222  ARG222      0.1354
    165  NH2        2.8410  -27.4550    8.1130 N.pl3 222  ARG222      0.1354
    166  N          3.4140  -24.7810   15.0450 N.am  223  TRP223     -0.1976
    167  CA         2.6420  -23.7480   15.7350 C.3   223  TRP223      0.1640
    168  C          2.0560  -24.1980   17.0650 C.2   223  TRP223      0.2290
    169  O          1.5070  -23.3810   17.8080 O.2   223  TRP223     -0.2864
    170  CB         1.5050  -23.2470   14.8350 C.3   223  TRP223      0.0576
    171  CG         1.8620  -23.2630   13.3890 C.ar  223  TRP223      0.0006
    172  CD1        1.9290  -24.3550   12.5780 C.ar  223  TRP223      0.0946
    173  CD2        2.2630  -22.1420   12.5900 C.ar  223  TRP223      0.0152
    174  NE1        2.3520  -23.9890   11.3260 N.ar  223  TRP223     -0.2442
    175  CE2        2.5640  -22.6360   11.3030 C.ar  223  TRP223      0.0810
    176  CE3        2.3990  -20.7690   12.8370 C.ar  223  TRP223      0.0012
    177  CZ2        2.9940  -21.8060   10.2620 C.ar  223  TRP223      0.0191
    178  CZ3        2.8270  -19.9430   11.8010 C.ar  223  TRP223      0.0001
    179  CH2        3.1180  -20.4670   10.5300 C.ar  223  TRP223      0.0015
    180  N         -4.4420  -21.7370   24.6170 N.3   300  HIS300     -0.1241
    181  CA        -4.6320  -21.4870   23.1870 C.3   300  HIS300      0.1621
    182  C         -3.6130  -22.3710   22.4870 C.2   300  HIS300      0.2264
    183  O         -2.4100  -22.2030   22.6770 O.2   300  HIS300     -0.2867
    184  CB        -4.3390  -20.0270   22.7910 C.3   300  HIS300      0.0745
    185  CG        -4.5520  -19.0270   23.8840 C.ar  300  HIS300      0.0817
    186  ND1       -5.4710  -19.2040   24.8970 N.ar  300  HIS300     -0.2268
    187  CD2       -3.9860  -17.8160   24.0980 C.ar  300  HIS300      0.1154
    188  CE1       -5.4630  -18.1440   25.6870 C.ar  300  HIS300      0.1986
    189  NE2       -4.5710  -17.2870   25.2230 N.ar  300  HIS300     -0.2212
    190  N         -2.7390  -22.6150   19.1730 N.3   302  PHE302     -0.1241
    191  CA        -1.8900  -21.9570   18.1890 C.3   302  PHE302      0.1605
    192  C         -0.9660  -20.9290   18.8330 C.2   302  PHE302      0.2264
    193  O         -1.4100  -20.0700   19.6000 O.2   302  PHE302     -0.2867
    194  CB        -2.7430  -21.2770   17.1180 C.3   302  PHE302      0.0534
    195  CG        -2.0190  -21.0600   15.8140 C.ar  302  PHE302     -0.0203
    196  CD1       -1.1950  -19.9530   15.6360 C.ar  302  PHE302     -0.0042
    197  CD2       -2.1810  -21.9530   14.7570 C.ar  302  PHE302     -0.0042
    198  CE1       -0.5440  -19.7360   14.4220 C.ar  302  PHE302     -0.0003
    199  CE2       -1.5350  -21.7470   13.5390 C.ar  302  PHE302     -0.0003
    200  CZ        -0.7180  -20.6370   13.3720 C.ar  302  PHE302     -0.0000
    201  N          0.5180  -17.8150   18.8100 N.3   304  SER304     -0.1217
    202  CA         0.3570  -16.5120   18.1740 C.3   304  SER304      0.1889
    203  C          1.3000  -15.4770   18.7840 C.2   304  SER304      0.2288
    204  O          1.0760  -14.2740   18.6540 O.2   304  SER304     -0.2866
    205  CB        -1.0810  -16.0420   18.3510 C.3   304  SER304      0.2089
    206  OG        -1.4970  -16.2410   19.6900 O.3   304  SER304     -0.2183
    207  N          2.5170  -12.3110   17.0340 N.3   307  PHE307     -0.1241
    208  CA         1.5750  -11.2070   16.8310 C.3   307  PHE307      0.1605
    209  C          1.2650  -10.4590   18.1220 C.2   307  PHE307      0.2264
    210  O          0.4820   -9.5050   18.1250 O.2   307  PHE307     -0.2867
    211  CB         0.2650  -11.7300   16.2400 C.3   307  PHE307      0.0534
    212  CG         0.3760  -12.1550   14.8100 C.ar  307  PHE307     -0.0203
    213  CD1        0.3680  -13.5040   14.4710 C.ar  307  PHE307     -0.0042
    214  CD2        0.5020  -11.2060   13.7980 C.ar  307  PHE307     -0.0042
    215  CE1        0.4860  -13.9060   13.1430 C.ar  307  PHE307     -0.0003
    216  CE2        0.6210  -11.5960   12.4660 C.ar  307  PHE307     -0.0003
    217  CZ         0.6130  -12.9490   12.1370 C.ar  307  PHE307     -0.0000
    218  N         -3.9910   -7.4850   18.6490 N.3   313  TYR313     -0.1228
    219  CA        -3.7910   -8.7980   19.2540 C.3   313  TYR313      0.1721
    220  C         -5.0020   -8.9520   20.1770 C.2   313  TYR313      0.2437
    221  O         -5.1970   -8.1620   21.1040 O.2   313  TYR313     -0.2733
    222  CB        -2.4910   -8.7970   20.0590 C.3   313  TYR313      0.0547
    223  CG        -2.0570  -10.1550   20.5520 C.ar  313  TYR313     -0.0200
    224  CD1       -1.9630  -10.4260   21.9180 C.ar  313  TYR313     -0.0009
    225  CD2       -1.7120  -11.1630   19.6550 C.ar  313  TYR313     -0.0009
    226  CE1       -1.5310  -11.6690   22.3760 C.ar  313  TYR313      0.0417
    227  CE2       -1.2810  -12.4070   20.1010 C.ar  313  TYR313      0.0417
    228  CZ        -1.1910  -12.6530   21.4620 C.ar  313  TYR313      0.1957
    229  OH        -0.7550  -13.8820   21.9000 O.3   313  TYR313     -0.2866
    230  N         -5.8280   -9.9770   19.9430 N.am  314  PRO314     -0.2718
    231  CA        -7.0230  -10.1790   20.7690 C.3   314  PRO314      0.1535
    232  C         -6.8660  -10.7880   22.1560 C.2   314  PRO314      0.2598
    233  O         -7.7580  -10.6540   22.9930 O.2   314  PRO314     -0.2715
    234  CB        -7.9230  -11.0390   19.8800 C.3   314  PRO314      0.0310
    235  CG        -6.9660  -11.8190   19.0300 C.3   314  PRO314      0.0237
    236  CD        -5.6880  -11.0140   18.9040 C.3   314  PRO314      0.0939
    237  N         -5.7370  -11.4410   22.4010 N.am  315  TYR315     -0.1974
    238  CA        -5.5110  -12.1160   23.6750 C.3   315  TYR315      0.1639
    239  C         -4.9550  -11.2920   24.8340 C.2   315  TYR315      0.2290
    240  O         -4.5300  -11.8530   25.8420 O.2   315  TYR315     -0.2864
    241  CB        -4.6250  -13.3410   23.4430 C.3   315  TYR315      0.0560
    242  CG        -5.3220  -14.4590   22.6920 C.ar  315  TYR315     -0.0198
    243  CD1       -6.6830  -14.7250   22.8900 C.ar  315  TYR315     -0.0009
    244  CD2       -4.6210  -15.2590   21.7930 C.ar  315  TYR315     -0.0009
    245  CE1       -7.3240  -15.7670   22.2030 C.ar  315  TYR315      0.0417
    246  CE2       -5.2470  -16.2990   21.1040 C.ar  315  TYR315      0.0417
    247  CZ        -6.5960  -16.5510   21.3120 C.ar  315  TYR315      0.1957
    248  OH        -7.2050  -17.5890   20.6270 O.3   315  TYR315     -0.2866
@<TRIPOS>BOND
     1    23    22    2
     2    38    37    2
     3    37    36    1
     4    22    21    1
     5    21    24    1
     6    21    20    1
     7    24    25    1
     8    27    28    1
     9    30    29    2
    10    36    35    1
    11    36    39    1
    12    29    35   am
    13    29    28    1
    14    28    31    1
    15    39    40    1
    16    50    49    2
    17    94    95    1
    18    16    15    2
    19    60    61    1
    20    60    57    1
    21    25    26    1
    22    20    15   am
    23    20    26    1
    24    62    61   ar
    25    62    64   ar
    26    56    57    1
    27    97    96    2
    28    47    48    1
    29    96    95    1
    30    49    48    1
    31    15    14    1
    32    61    63   ar
    33    59    58    2
    34    31    32    1
    35    95    98    1
    36    57    58    1
    37    40    41   ar
    38    40    42   ar
    39    64    65   ar
    40    33    32    1
    41    48    51    1
    42    41    43   ar
    43    98    99    1
    44    32    34    1
    45    42    44   ar
    46    63    65   ar
    47    63    66   ar
    48    14    13    1
    49    14    17    1
    50    65    67   ar
    51    13    19    1
    52    51    52    1
    53     9     7   ar
    54     9    11   ar
    55    43    45   ar
    56     2     1    1
    57     2     3    1
    58     2     5    1
    59     7     6   ar
    60    12    11    1
    61     3     4    2
    62    66    68   ar
    63    44    45   ar
    64    17    18    1
    65    11    10   ar
    66    52    53    1
    67   164   163    1
    68    19    18    1
    69    45    46    1
    70    76    78   ar
    71    76    75   ar
    72    67    69   ar
    73     6     5    1
    74     6     8   ar
    75    78    79   ar
    76    10     8   ar
    77   165   163    1
    78    55    54    1
    79    68    69   ar
    80   163   162    2
    81    53    54    1
    82    74    75    1
    83    74    71    1
    84    75    77   ar
    85    70    71    1
    86    79    77   ar
    87    71    72    1
    88   162   161    1
    89   161   160    1
    90   145   144    2
    91   177   179   ar
    92   177   175   ar
    93   146   144   am
    94   179   178   ar
    95    72    80   am
    96    72    73    2
    97   144   143    1
    98   154   152   ar
    99    89    88    2
   100    80    81    1
   101    83    82    2
   102   175   174   ar
   103   175   173   ar
   104   174   172   ar
   105   160   159    1
   106   116   114   am
   107    88    87    1
   108   178   176   ar
   109   152   153   ar
   110   152   151    1
   111   115   114    2
   112    84    81    1
   113    84    85    1
   114    81    82    1
   115   217   216   ar
   116   217   215   ar
   117   159   156    1
   118   114   113    1
   119   143   142    1
   120   216   214   ar
   121   172   171   ar
   122   173   176   ar
   123   173   171   ar
   124   151   148    1
   125   142   139    1
   126    87    86    1
   127    87    90    1
   128   215   213   ar
   129   200   199   ar
   130   200   198   ar
   131   171   170    1
   132   199   197   ar
   133    90    91    1
   134   156   155    1
   135   156   157    1
   136   113   112    1
   137   214   212   ar
   138   112   109    1
   139   107   105   am
   140   148   149    1
   141   148   147    1
   142   158   157    2
   143   157   166   am
   144   198   196   ar
   145   213   212   ar
   146   139   140    1
   147   139   138    1
   148   141   140    2
   149   197   195   ar
   150   212   211    1
   151   170   167    1
   152   149   150    2
   153   166   167    1
   154   130   131    1
   155   130   127    1
   156    91    92    1
   157   109   108    1
   158   109   110    1
   159   105   104    1
   160   105   106    2
   161   132   131   ar
   162   132   134   ar
   163   131   133   ar
   164   111   110    2
   165   196   195   ar
   166   100   101    1
   167   167   168    1
   168    93    92    1
   169   104   101    1
   170   134   136   ar
   171   195   194    1
   172   133   135   ar
   173   127   126    1
   174   127   128    1
   175   211   208    1
   176   136   135   ar
   177   136   137    1
   178   101   102    1
   179   208   207    1
   180   208   209    1
   181   128   129    2
   182   168   169    2
   183   194   191    1
   184   102   103    2
   185   209   210    2
   186   202   205    1
   187   202   203    1
   188   202   201    1
   189   191   192    1
   190   191   190    1
   191   205   206    1
   192   218   219    1
   193   204   203    2
   194   192   193    2
   195   117   118    1
   196   236   235    1
   197   236   230    1
   198   235   234    1
   199   219   222    1
   200   219   220    1
   201   118   121    1
   202   118   119    1
   203   225   227   ar
   204   225   223   ar
   205   121   122    1
   206   125   123   ar
   207   234   231    1
   208   230   220   am
   209   230   231    1
   210   222   223    1
   211   227   228   ar
   212   220   221    2
   213   122   123    1
   214   123   124   ar
   215   223   224   ar
   216   248   247    1
   217   119   120    2
   218   231   232    1
   219   246   247   ar
   220   246   244   ar
   221   247   245   ar
   222   228   229    1
   223   228   226   ar
   224   244   242   ar
   225   224   226   ar
   226   232   237   am
   227   232   233    2
   228   245   243   ar
   229   237   238    1
   230   182   183    2
   231   182   181    1
   232   242   243   ar
   233   242   241    1
   234   184   181    1
   235   184   185    1
   236   181   180    1
   237   241   238    1
   238   238   239    1
   239   185   187   ar
   240   185   186   ar
   241   187   189   ar
   242   239   240    2
   243   186   188   ar
   244   189   188   ar
