@<TRIPOS>MOLECULE
tmp/1ryaB00.pdb
 164 157 0 0 0
SMALL
GASTEIGER

@<TRIPOS>ATOM
      1  N         30.9210   22.0980   24.4810 N.3     3  PHE3       -0.1227
      2  CA        29.6030   21.7210   24.0120 C.3     3  PHE3        0.1736
      3  C         29.3150   20.3250   24.5380 C.2     3  PHE3        0.2595
      4  O         30.0730   19.3960   24.2780 O.2     3  PHE3       -0.2718
      5  CB        29.5450   21.7510   22.4810 C.3     3  PHE3        0.0547
      6  CG        28.1760   21.5260   21.9300 C.ar    3  PHE3       -0.0202
      7  CD1       27.2500   22.5510   21.8830 C.ar    3  PHE3       -0.0042
      8  CD2       27.7970   20.2710   21.4640 C.ar    3  PHE3       -0.0042
      9  CE1       25.9930   22.3350   21.3790 C.ar    3  PHE3       -0.0003
     10  CE2       26.5360   20.0610   20.9420 C.ar    3  PHE3       -0.0003
     11  CZ        25.6390   21.0920   20.8950 C.ar    3  PHE3       -0.0000
     12  N         28.2390   20.1820   25.2810 N.am    4  LEU4       -0.1980
     13  CA        27.9410   18.9340   25.9750 C.3     4  LEU4        0.1596
     14  C         27.1780   17.9430   25.1280 C.2     4  LEU4        0.2287
     15  O         26.3210   18.2990   24.3220 O.2     4  LEU4       -0.2864
     16  CB        27.1060   19.2280   27.2130 C.3     4  LEU4        0.0297
     17  CG        27.7560   20.1240   28.2580 C.3     4  LEU4        0.0022
     18  CD1       26.7280   20.4420   29.3310 C.3     4  LEU4        0.0001
     19  CD2       28.9860   19.4920   28.8480 C.3     4  LEU4        0.0001
     20  N         24.1870   15.4140   24.6600 N.3     6  GLN6       -0.1245
     21  CA        22.8140   15.5750   25.0910 C.3     6  GLN6        0.1566
     22  C         22.5690   15.0180   26.4920 C.2     6  GLN6        0.2260
     23  O         21.8670   15.6320   27.2880 O.2     6  GLN6       -0.2867
     24  CB        21.8260   14.9970   24.0700 C.3     6  GLN6        0.0367
     25  CG        21.6750   15.9190   22.8330 C.3     6  GLN6        0.0905
     26  CD        20.3020   15.8600   22.1870 C.2     6  GLN6        0.2608
     27  OE1       19.5230   14.9390   22.4360 O.2     6  GLN6       -0.2717
     28  NE2       20.0080   16.8460   21.3450 N.am    6  GLN6       -0.0878
     29  N         23.9700   17.5540   28.9030 N.3     9  PHE9       -0.1241
     30  CA        23.1810   18.7870   28.8670 C.3     9  PHE9        0.1605
     31  C         21.8510   18.5950   29.5930 C.2     9  PHE9        0.2264
     32  O         21.4100   19.4560   30.3380 O.2     9  PHE9       -0.2867
     33  CB        22.9820   19.2370   27.4160 C.3     9  PHE9        0.0534
     34  CG        22.4050   20.6280   27.2560 C.ar    9  PHE9       -0.0203
     35  CD1       22.7850   21.6690   28.0870 C.ar    9  PHE9       -0.0042
     36  CD2       21.4950   20.8890   26.2490 C.ar    9  PHE9       -0.0042
     37  CE1       22.2570   22.9500   27.9220 C.ar    9  PHE9       -0.0003
     38  CE2       20.9710   22.1700   26.0830 C.ar    9  PHE9       -0.0003
     39  CZ        21.3570   23.1820   26.9190 C.ar    9  PHE9       -0.0000
     40  N         11.5890   31.3300   17.0220 N.3    37  ARG37      -0.1245
     41  CA        12.3790   30.2170   17.5520 C.3    37  ARG37       0.1563
     42  C         11.8530   28.8670   17.0890 C.2    37  ARG37       0.2260
     43  O         10.6410   28.6050   17.1710 O.2    37  ARG37      -0.2867
     44  CB        12.3650   30.2330   19.0710 C.3    37  ARG37       0.0307
     45  CG        13.2550   31.2880   19.6940 C.3    37  ARG37       0.0489
     46  CD        13.1850   31.3220   21.2090 C.3    37  ARG37       0.2205
     47  NE        13.6220   30.0580   21.8160 N.pl3  37  ARG37      -0.0865
     48  CZ        14.8870   29.6690   21.9320 C.cat  37  ARG37       0.5346
     49  NH1       15.1380   28.4890   22.4850 N.pl3  37  ARG37       0.1354
     50  NH2       15.8940   30.4150   21.4890 N.pl3  37  ARG37       0.1354
     51  N         13.4650   25.9710   18.4200 N.3    39  ASN39      -0.1225
     52  CA        13.7970   25.0670   19.5200 C.3    39  ASN39       0.1785
     53  C         13.0370   25.4340   20.7760 C.2    39  ASN39       0.2597
     54  O         12.6380   26.5800   20.9670 O.2    39  ASN39      -0.2718
     55  CB        15.2950   25.1190   19.8270 C.3    39  ASN39       0.1169
     56  CG        16.1430   24.7120   18.6510 C.2    39  ASN39       0.2627
     57  OD1       15.8210   23.7470   17.9520 O.2    39  ASN39      -0.2716
     58  ND2       17.2210   25.4510   18.3970 N.am   39  ASN39      -0.0877
     59  N         12.8510   24.4600   21.6540 N.am   40  ARG40      -0.1966
     60  CA        12.4230   24.7090   23.0230 C.3    40  ARG40       0.1714
     61  C         13.6360   25.1860   23.8270 C.2    40  ARG40       0.2458
     62  O         14.7610   24.8500   23.4840 O.2    40  ARG40      -0.2730
     63  CB        11.9240   23.4170   23.6610 C.3    40  ARG40       0.0347
     64  CG        10.7210   22.7600   23.0440 C.3    40  ARG40       0.0492
     65  CD        10.3700   21.4630   23.7860 C.3    40  ARG40       0.2205
     66  NE         9.1670   20.7970   23.2770 N.pl3  40  ARG40      -0.0865
     67  CZ         7.9220   21.0580   23.6720 C.cat  40  ARG40       0.5346
     68  NH1        7.6410   21.9710   24.5890 N.pl3  40  ARG40       0.1354
     69  NH2        6.9180   20.3760   23.1290 N.pl3  40  ARG40       0.1354
     70  N         13.4270   25.9450   24.8930 N.am   41  PRO41      -0.2727
     71  CA        12.1390   26.4820   25.3170 C.3    41  PRO41       0.1402
     72  C         11.7340   27.7190   24.5030 C.2    41  PRO41       0.2269
     73  O         12.4800   28.1540   23.6290 O.2    41  PRO41      -0.2865
     74  CB        12.4060   26.8640   26.7720 C.3    41  PRO41       0.0296
     75  CG        13.8750   27.2400   26.7890 C.3    41  PRO41       0.0237
     76  CD        14.5220   26.3700   25.7870 C.3    41  PRO41       0.0939
     77  N         20.0540   34.7700   21.4700 N.3    50  GLY50      -0.1210
     78  CA        20.7820   34.6300   22.7180 C.3    50  GLY50       0.1956
     79  C         21.1320   33.1960   22.9770 C.2    50  GLY50       0.2612
     80  O         20.4980   32.2990   22.4410 O.2    50  GLY50      -0.2717
     81  N         22.1120   32.9490   23.8350 N.am   51  GLY51      -0.1942
     82  CA        22.4530   31.5750   24.1710 C.3    51  GLY51       0.2014
     83  C         23.3750   31.4540   25.3470 C.2    51  GLY51       0.2638
     84  O         23.8650   32.4370   25.8900 O.2    51  GLY51      -0.2714
     85  N         23.5990   30.2150   25.7510 N.am   52  ARG52      -0.1977
     86  CA        24.2800   29.9520   27.0090 C.3    52  ARG52       0.1597
     87  C         25.8100   29.9550   26.9050 C.2    52  ARG52       0.2287
     88  O         26.3830   29.6610   25.8710 O.2    52  ARG52      -0.2864
     89  CB        23.7770   28.6470   27.6420 C.3    52  ARG52       0.0334
     90  CG        24.3770   27.4150   27.0700 C.3    52  ARG52       0.0492
     91  CD        23.9190   26.1550   27.7890 C.3    52  ARG52       0.2205
     92  NE        24.8420   25.0510   27.5150 N.pl3  52  ARG52      -0.0865
     93  CZ        25.8560   24.6560   28.2830 C.cat  52  ARG52       0.5346
     94  NH1       26.1380   25.1880   29.4590 N.pl3  52  ARG52       0.1354
     95  NH2       26.5880   23.6330   27.8790 N.pl3  52  ARG52       0.1354
     96  N         29.3250   28.3230   28.1050 N.3    54  GLN54      -0.1245
     97  CA        29.7950   26.9760   28.3770 C.3    54  GLN54       0.1566
     98  C         30.8170   26.9200   29.5150 C.2    54  GLN54       0.2260
     99  O         31.3700   27.9210   29.9410 O.2    54  GLN54      -0.2867
    100  CB        30.3930   26.4010   27.0920 C.3    54  GLN54       0.0367
    101  CG        29.3540   26.2220   25.9910 C.3    54  GLN54       0.0905
    102  CD        29.9250   25.8680   24.6260 C.2    54  GLN54       0.2608
    103  OE1       29.1460   25.6360   23.6760 O.2    54  GLN54      -0.2717
    104  NE2       31.2300   25.7870   24.5220 N.am   54  GLN54      -0.0878
    105  N         31.5880   33.9640   20.3060 N.3    65  ARG65      -0.1231
    106  CA        31.0220   32.7290   19.7680 C.3    65  ARG65       0.1694
    107  C         29.5300   32.8830   19.4610 C.2    65  ARG65       0.2591
    108  O         29.0430   32.4650   18.4070 O.2    65  ARG65      -0.2718
    109  CB        31.2190   31.5570   20.7290 C.3    65  ARG65       0.0321
    110  CG        30.5680   30.2530   20.2840 C.3    65  ARG65       0.0489
    111  CD        30.7980   29.1080   21.2400 C.3    65  ARG65       0.2205
    112  NE        30.3170   29.3850   22.6070 N.pl3  65  ARG65      -0.0865
    113  CZ        29.0550   29.3330   23.0010 C.cat  65  ARG65       0.5346
    114  NH1       28.0780   28.9690   22.1760 N.pl3  65  ARG65       0.1354
    115  NH2       28.7730   29.6300   24.2540 N.pl3  65  ARG65       0.1354
    116  N         28.8020   33.4810   20.3940 N.am   66  LEU66      -0.1980
    117  CA        27.3560   33.6100   20.3100 C.3    66  LEU66       0.1596
    118  C         26.9090   34.6440   19.2740 C.2    66  LEU66       0.2287
    119  O         25.9280   34.4030   18.5770 O.2    66  LEU66      -0.2864
    120  CB        26.7730   33.9190   21.6970 C.3    66  LEU66       0.0297
    121  CG        26.7520   32.7220   22.6600 C.3    66  LEU66       0.0022
    122  CD1       26.5370   33.1810   24.0990 C.3    66  LEU66       0.0001
    123  CD2       25.6580   31.7530   22.2440 C.3    66  LEU66       0.0001
    124  N         24.6600   33.2650   16.3650 N.3    70  GLU70      -0.1245
    125  CA        23.2670   33.7300   16.3310 C.3    70  GLU70       0.1567
    126  C         23.0010   34.6990   15.1880 C.2    70  GLU70       0.2260
    127  O         21.8800   34.7550   14.6920 O.2    70  GLU70      -0.2867
    128  CB        22.8810   34.4020   17.6510 C.3    70  GLU70       0.0388
    129  CG        22.8480   33.4900   18.8670 C.3    70  GLU70       0.1160
    130  CD        21.5670   32.6920   19.0250 C.2    70  GLU70       0.3649
    131  OE1       20.5480   32.9210   18.3180 O.co2  70  GLU70      -0.2457
    132  OE2       21.5620   31.8480   19.9260 O.co2  70  GLU70      -0.2457
    133  N         15.0130   21.8800   26.1370 N.3    94  PHE94      -0.1241
    134  CA        15.4510   21.5580   24.7810 C.3    94  PHE94       0.1605
    135  C         14.9480   20.2020   24.2790 C.2    94  PHE94       0.2264
    136  O         14.6630   20.0480   23.0830 O.2    94  PHE94      -0.2867
    137  CB        16.9900   21.6340   24.6910 C.3    94  PHE94       0.0534
    138  CG        17.7010   20.4840   25.3550 C.ar   94  PHE94      -0.0203
    139  CD1       18.1490   19.4040   24.6040 C.ar   94  PHE94      -0.0042
    140  CD2       17.9080   20.4780   26.7250 C.ar   94  PHE94      -0.0042
    141  CE1       18.8050   18.3320   25.2200 C.ar   94  PHE94      -0.0003
    142  CE2       18.5580   19.4190   27.3370 C.ar   94  PHE94      -0.0003
    143  CZ        18.9910   18.3450   26.5880 C.ar   94  PHE94      -0.0000
    144  N         17.3260   30.0430   33.2700 N.3   103  TYR103     -0.1241
    145  CA        18.4640   30.8570   32.8340 C.3   103  TYR103      0.1605
    146  C         18.6350   32.0920   33.6960 C.2   103  TYR103      0.2264
    147  O         17.6500   32.7580   34.0500 O.2   103  TYR103     -0.2867
    148  CB        18.2750   31.4020   31.4240 C.3   103  TYR103      0.0534
    149  CG        18.1120   30.4740   30.2600 C.ar  103  TYR103     -0.0201
    150  CD1       16.8830   29.9080   29.9810 C.ar  103  TYR103     -0.0009
    151  CD2       19.1450   30.2470   29.3630 C.ar  103  TYR103     -0.0009
    152  CE1       16.6940   29.1450   28.8490 C.ar  103  TYR103      0.0417
    153  CE2       18.9630   29.4530   28.2300 C.ar  103  TYR103      0.0417
    154  CZ        17.7270   28.9110   27.9920 C.ar  103  TYR103      0.1957
    155  OH        17.4960   28.1730   26.8510 O.3   103  TYR103     -0.2866
    156  N         18.3530   28.1660   14.5710 N.3   123  GLN123     -0.1245
    157  CA        17.5440   28.4450   15.7550 C.3   123  GLN123      0.1566
    158  C         16.2680   29.2380   15.4720 C.2   123  GLN123      0.2260
    159  O         15.4040   29.3400   16.3310 O.2   123  GLN123     -0.2867
    160  CB        18.3710   29.1980   16.7980 C.3   123  GLN123      0.0367
    161  CG        19.5920   28.4410   17.3040 C.3   123  GLN123      0.0905
    162  CD        20.3280   29.2010   18.3780 C.2   123  GLN123      0.2608
    163  OE1       19.7410   29.5710   19.3990 O.2   123  GLN123     -0.2717
    164  NE2       21.6180   29.4220   18.1620 N.am  123  GLN123     -0.0878
@<TRIPOS>BOND
     1   156   157    1
     2   127   126    2
     3   126   125    1
     4   158   157    1
     5   158   159    2
     6   157   160    1
     7   125   124    1
     8   125   128    1
     9   160   161    1
    10    40    41    1
    11    42    43    2
    12    42    41    1
    13   161   162    1
    14    41    44    1
    15   128   129    1
    16    57    56    2
    17   164   162   am
    18   131   130   ar
    19   162   163    2
    20    58    56   am
    21   108   107    2
    22    51    52    1
    23   119   118    2
    24    56    55    1
    25   129   130    1
    26   130   132   ar
    27    44    45    1
    28   118   117    1
    29   107   106    1
    30   107   116   am
    31    52    55    1
    32    52    53    1
    33    45    46    1
    34   106   105    1
    35   106   109    1
    36   110   109    1
    37   110   111    1
    38   117   116    1
    39   117   120    1
    40    53    54    2
    41    53    59   am
    42    11    10   ar
    43    11     9   ar
    44    10     8   ar
    45    46    47    1
    46   111   112    1
    47    28    26   am
    48     9     7   ar
    49     8     6   ar
    50    77    78    1
    51    50    48    1
    52    59    60    1
    53   120   121    1
    54    47    48    2
    55     7     6   ar
    56     6     5    1
    57    48    49    1
    58   114   113    1
    59    26    27    2
    60    26    25    1
    61   123   121    1
    62    80    79    2
    63     5     2    1
    64   112   113    2
    65   121   122    1
    66    78    79    1
    67    25    24    1
    68    79    81   am
    69   113   115    1
    70    60    63    1
    71    60    61    1
    72    64    63    1
    73    64    65    1
    74   136   135    2
    75    69    67    1
    76    66    67    2
    77    66    65    1
    78    62    61    2
    79    73    72    2
    80    67    68    1
    81   103   102    2
    82    61    70   am
    83    81    82    1
    84     2     1    1
    85     2     3    1
    86    24    21    1
    87    82    83    1
    88     4     3    2
    89   135   134    1
    90    15    14    2
    91    72    71    1
    92   104   102   am
    93     3    12   am
    94   139   141   ar
    95   139   138   ar
    96   102   101    1
    97    20    21    1
    98   137   134    1
    99   137   138    1
   100   134   133    1
   101    70    71    1
   102    70    76    1
   103    21    22    1
   104    14    13    1
   105   141   143   ar
   106    12    13    1
   107    71    74    1
   108    83    85   am
   109    83    84    2
   110   138   140   ar
   111    85    86    1
   112    76    75    1
   113    88    87    2
   114    13    16    1
   115   101   100    1
   116    38    36   ar
   117    38    39   ar
   118    36    34   ar
   119    22    23    2
   120   143   142   ar
   121   140   142   ar
   122    74    75    1
   123   155   154    1
   124    87    86    1
   125    39    37   ar
   126    86    89    1
   127    90    89    1
   128    90    91    1
   129   100    97    1
   130    16    17    1
   131    34    33    1
   132    34    35   ar
   133    33    30    1
   134    92    91    1
   135    92    93    2
   136    95    93    1
   137    37    35   ar
   138   154   153   ar
   139   154   152   ar
   140    96    97    1
   141   153   151   ar
   142    17    19    1
   143    17    18    1
   144    93    94    1
   145    97    98    1
   146   152   150   ar
   147    30    29    1
   148    30    31    1
   149   151   149   ar
   150    98    99    2
   151    31    32    2
   152   150   149   ar
   153   149   148    1
   154   148   145    1
   155   145   144    1
   156   145   146    1
   157   146   147    2
