@<TRIPOS>MOLECULE
tmp/1ryaB01.pdb
 104 99 0 0 0
SMALL
GASTEIGER

@<TRIPOS>ATOM
      1  N         23.3780   32.7540   30.4210 N.3    20  SER20      -0.1217
      2  CA        23.3190   33.0870   29.0020 C.3    20  SER20       0.1889
      3  C         23.4950   34.5720   28.7400 C.2    20  SER20       0.2288
      4  O         23.4300   35.3900   29.6370 O.2    20  SER20      -0.2866
      5  CB        22.0040   32.5930   28.4220 C.3    20  SER20       0.2089
      6  OG        20.9370   33.1950   29.0960 O.3    20  SER20      -0.2183
      7  N         21.8480   37.4510   26.1280 N.3    22  ASP22      -0.1239
      8  CA        20.8110   37.8190   25.1590 C.3    22  ASP22       0.1674
      9  C         21.1970   39.1210   24.4930 C.2    22  ASP22       0.2266
     10  O         21.7260   40.0250   25.1320 O.2    22  ASP22      -0.2867
     11  CB        19.4450   37.9760   25.8330 C.3    22  ASP22       0.1410
     12  CG        18.6910   36.6820   25.9480 C.2    22  ASP22       0.3668
     13  OD1       19.2220   35.6340   25.5520 O.co2  22  ASP22      -0.2456
     14  OD2       17.5450   36.6890   26.4550 O.co2  22  ASP22      -0.2456
     15  N         11.5890   31.3300   17.0220 N.3    37  ARG37      -0.1245
     16  CA        12.3790   30.2170   17.5520 C.3    37  ARG37       0.1563
     17  C         11.8530   28.8670   17.0890 C.2    37  ARG37       0.2260
     18  O         10.6410   28.6050   17.1710 O.2    37  ARG37      -0.2867
     19  CB        12.3650   30.2330   19.0710 C.3    37  ARG37       0.0307
     20  CG        13.2550   31.2880   19.6940 C.3    37  ARG37       0.0489
     21  CD        13.1850   31.3220   21.2090 C.3    37  ARG37       0.2205
     22  NE        13.6220   30.0580   21.8160 N.pl3  37  ARG37      -0.0865
     23  CZ        14.8870   29.6690   21.9320 C.cat  37  ARG37       0.5346
     24  NH1       15.1380   28.4890   22.4850 N.pl3  37  ARG37       0.1354
     25  NH2       15.8940   30.4150   21.4890 N.pl3  37  ARG37       0.1354
     26  N         13.4270   25.9450   24.8930 N.3    41  PRO41      -0.2102
     27  CA        12.1390   26.4820   25.3170 C.3    41  PRO41       0.1504
     28  C         11.7340   27.7190   24.5030 C.2    41  PRO41       0.2575
     29  O         12.4800   28.1540   23.6290 O.2    41  PRO41      -0.2718
     30  CB        12.4060   26.8640   26.7720 C.3    41  PRO41       0.0282
     31  CG        13.8750   27.2400   26.7890 C.3    41  PRO41       0.0208
     32  CD        14.5220   26.3700   25.7870 C.3    41  PRO41       0.0893
     33  N         10.5580   28.2590   24.8000 N.am   42  ALA42      -0.1980
     34  CA         9.9660   29.3640   24.0360 C.3    42  ALA42       0.1597
     35  C          9.8530   29.0230   22.5400 C.2    42  ALA42       0.2287
     36  O          9.9920   29.8800   21.6830 O.2    42  ALA42      -0.2864
     37  CB        10.7490   30.6490   24.2580 C.3    42  ALA42       0.0319
     38  N         11.6310   35.9790   19.5750 N.3    47  PHE47      -0.1227
     39  CA        12.5440   36.1910   20.7020 C.3    47  PHE47       0.1736
     40  C         13.8050   36.8640   20.1810 C.2    47  PHE47       0.2595
     41  O         14.2290   36.6360   19.0510 O.2    47  PHE47      -0.2718
     42  CB        12.9020   34.8410   21.3800 C.3    47  PHE47       0.0547
     43  CG        13.0840   34.9320   22.8700 C.ar   47  PHE47      -0.0202
     44  CD1       14.2020   35.5540   23.4230 C.ar   47  PHE47      -0.0042
     45  CD2       12.1360   34.3950   23.7300 C.ar   47  PHE47      -0.0042
     46  CE1       14.3400   35.6630   24.7920 C.ar   47  PHE47      -0.0003
     47  CE2       12.2860   34.4960   25.0890 C.ar   47  PHE47      -0.0003
     48  CZ        13.3780   35.1380   25.6230 C.ar   47  PHE47      -0.0000
     49  N         14.4410   37.6690   21.0130 N.am   48  VAL48      -0.1980
     50  CA        15.7840   38.1350   20.6750 C.3    48  VAL48       0.1595
     51  C         16.7450   36.9550   20.5850 C.2    48  VAL48       0.2287
     52  O         16.5100   35.9210   21.2120 O.2    48  VAL48      -0.2864
     53  CB        16.3080   39.1710   21.7160 C.3    48  VAL48       0.0276
     54  CG1       15.4000   40.3860   21.7890 C.3    48  VAL48       0.0022
     55  CG2       16.5120   38.5570   23.0980 C.3    48  VAL48       0.0022
     56  N         20.0540   34.7700   21.4700 N.3    50  GLY50      -0.1210
     57  CA        20.7820   34.6300   22.7180 C.3    50  GLY50       0.1956
     58  C         21.1320   33.1960   22.9770 C.2    50  GLY50       0.2612
     59  O         20.4980   32.2990   22.4410 O.2    50  GLY50      -0.2717
     60  N         22.1120   32.9490   23.8350 N.am   51  GLY51      -0.1956
     61  CA        22.4530   31.5750   24.1710 C.3    51  GLY51       0.1869
     62  C         23.3750   31.4540   25.3470 C.2    51  GLY51       0.2309
     63  O         23.8650   32.4370   25.8900 O.2    51  GLY51      -0.2863
     64  N         14.9720   33.9170   33.6190 N.3    88  HIS88      -0.1241
     65  CA        13.9710   33.3610   32.7340 C.3    88  HIS88       0.1621
     66  C         13.7100   31.9110   33.1260 C.2    88  HIS88       0.2264
     67  O         14.6350   31.1200   33.1770 O.2    88  HIS88      -0.2867
     68  CB        14.4990   33.4160   31.2890 C.3    88  HIS88       0.0745
     69  CG        14.7000   34.8060   30.7570 C.ar   88  HIS88       0.0817
     70  ND1       14.7960   35.0650   29.4160 N.ar   88  HIS88      -0.2268
     71  CD2       14.9070   35.9950   31.3700 C.ar   88  HIS88       0.1154
     72  CE1       14.9440   36.3620   29.2180 C.ar   88  HIS88       0.1986
     73  NE2       14.9900   36.9540   30.3880 N.ar   88  HIS88      -0.2212
     74  N         11.3100   28.4940   32.3550 N.3    90  TYR90      -0.1241
     75  CA        10.4550   27.8240   31.3790 C.3    90  TYR90       0.1605
     76  C         10.0600   26.4670   31.9310 C.2    90  TYR90       0.2264
     77  O         10.8400   25.8010   32.6220 O.2    90  TYR90      -0.2867
     78  CB        11.2000   27.6480   30.0580 C.3    90  TYR90       0.0534
     79  CG        11.6250   28.9560   29.4440 C.ar   90  TYR90      -0.0201
     80  CD1       12.9310   29.4090   29.5560 C.ar   90  TYR90      -0.0009
     81  CD2       10.7110   29.7580   28.7740 C.ar   90  TYR90      -0.0009
     82  CE1       13.3260   30.5970   28.9870 C.ar   90  TYR90       0.0417
     83  CE2       11.0870   30.9510   28.2190 C.ar   90  TYR90       0.0417
     84  CZ        12.3970   31.3710   28.3220 C.ar   90  TYR90       0.1957
     85  OH        12.7370   32.5670   27.7690 O.3    90  TYR90      -0.2866
     86  N         17.3260   30.0430   33.2700 N.3   103  TYR103     -0.1241
     87  CA        18.4640   30.8570   32.8340 C.3   103  TYR103      0.1605
     88  C         18.6350   32.0920   33.6960 C.2   103  TYR103      0.2264
     89  O         17.6500   32.7580   34.0500 O.2   103  TYR103     -0.2867
     90  CB        18.2750   31.4020   31.4240 C.3   103  TYR103      0.0534
     91  CG        18.1120   30.4740   30.2600 C.ar  103  TYR103     -0.0201
     92  CD1       16.8830   29.9080   29.9810 C.ar  103  TYR103     -0.0009
     93  CD2       19.1450   30.2470   29.3630 C.ar  103  TYR103     -0.0009
     94  CE1       16.6940   29.1450   28.8490 C.ar  103  TYR103      0.0417
     95  CE2       18.9630   29.4530   28.2300 C.ar  103  TYR103      0.0417
     96  CZ        17.7270   28.9110   27.9920 C.ar  103  TYR103      0.1957
     97  OH        17.4960   28.1730   26.8510 O.3   103  TYR103     -0.2866
     98  N         20.4390   35.5180   32.8780 N.3   105  VAL105     -0.1245
     99  CA        20.7380   36.1030   31.5850 C.3   105  VAL105      0.1561
    100  C         21.3880   37.4570   31.7350 C.2   105  VAL105      0.2260
    101  O         20.9100   38.3050   32.4720 O.2   105  VAL105     -0.2867
    102  CB        19.4390   36.2700   30.7620 C.3   105  VAL105      0.0252
    103  CG1       19.7490   36.7240   29.3440 C.3   105  VAL105      0.0019
    104  CG2       18.6190   34.9830   30.7460 C.3   105  VAL105      0.0019
@<TRIPOS>BOND
     1    15    16    1
     2    17    18    2
     3    17    16    1
     4    16    19    1
     5    41    40    2
     6    19    20    1
     7    38    39    1
     8    20    21    1
     9    40    39    1
    10    40    49   am
    11    51    50    1
    12    51    52    2
    13    50    49    1
    14    50    53    1
    15    39    42    1
    16    21    22    1
    17    42    43    1
    18    56    57    1
    19    25    23    1
    20    36    35    2
    21    53    54    1
    22    53    55    1
    23    22    23    2
    24    23    24    1
    25    59    58    2
    26    35    34    1
    27    57    58    1
    28    43    44   ar
    29    43    45   ar
    30    58    60   am
    31    44    46   ar
    32    29    28    2
    33    45    47   ar
    34    60    61    1
    35    34    37    1
    36    34    33    1
    37    61    62    1
    38     9    10    2
    39     9     8    1
    40    28    33   am
    41    28    27    1
    42    46    48   ar
    43    26    27    1
    44    26    32    1
    45    47    48   ar
    46     8    11    1
    47     8     7    1
    48    27    30    1
    49    62    63    2
    50    13    12   ar
    51    32    31    1
    52    11    12    1
    53    12    14   ar
    54    30    31    1
    55    97    96    1
    56    85    84    1
    57    96    95   ar
    58    96    94   ar
    59    83    84   ar
    60    83    81   ar
    61    95    93   ar
    62    84    82   ar
    63     5     2    1
    64     5     6    1
    65     3     2    1
    66     3     4    2
    67    81    79   ar
    68    94    92   ar
    69    82    80   ar
    70     2     1    1
    71    72    70   ar
    72    72    73   ar
    73   103   102    1
    74    93    91   ar
    75    70    69   ar
    76    79    80   ar
    77    79    78    1
    78    92    91   ar
    79    78    75    1
    80    91    90    1
    81    73    71   ar
    82   104   102    1
    83    69    68    1
    84    69    71   ar
    85   102    99    1
    86    68    65    1
    87    75    76    1
    88    75    74    1
    89    90    87    1
    90    99   100    1
    91    99    98    1
    92   100   101    2
    93    76    77    2
    94    65    66    1
    95    65    64    1
    96    87    86    1
    97    87    88    1
    98    66    67    2
    99    88    89    2
