@<TRIPOS>MOLECULE
tmp/1rz1H00.pdb
 212 206 0 0 0
SMALL
GASTEIGER

@<TRIPOS>ATOM
      1  N         28.1650  -27.9710   33.6010 N.3    15  VAL15      -0.1245
      2  CA        28.6490  -27.4830   32.3310 C.3    15  VAL15       0.1561
      3  C         29.9880  -28.1360   32.1180 C.2    15  VAL15       0.2260
      4  O         30.7930  -28.2220   33.0580 O.2    15  VAL15      -0.2867
      5  CB        28.8750  -25.9300   32.3530 C.3    15  VAL15       0.0252
      6  CG1       29.1320  -25.3940   30.9290 C.3    15  VAL15       0.0019
      7  CG2       27.6800  -25.2060   32.9600 C.3    15  VAL15       0.0019
      8  N         44.5200  -28.5750   19.4840 N.3    26  VAL26      -0.1231
      9  CA        43.5350  -28.8180   20.5280 C.3    26  VAL26       0.1692
     10  C         42.2380  -28.1000   20.1660 C.2    26  VAL26       0.2592
     11  O         42.2340  -26.8920   19.8950 O.2    26  VAL26      -0.2718
     12  CB        44.0290  -28.3010   21.9070 C.3    26  VAL26       0.0266
     13  CG1       42.9260  -28.4680   22.9820 C.3    26  VAL26       0.0020
     14  CG2       45.2880  -29.0240   22.3180 C.3    26  VAL26       0.0020
     15  N         41.1410  -28.8440   20.1600 N.am   27  HIS27      -0.1962
     16  CA        39.8280  -28.2420   19.9600 C.3    27  HIS27       0.1787
     17  C         38.9130  -28.4990   21.1500 C.2    27  HIS27       0.2620
     18  O         38.9310  -29.6030   21.7310 O.2    27  HIS27      -0.2715
     19  CB        39.2140  -28.7570   18.6630 C.3    27  HIS27       0.0785
     20  CG        40.1060  -28.5620   17.4800 C.ar   27  HIS27       0.0821
     21  ND1       40.1160  -27.4000   16.7320 N.ar   27  HIS27      -0.2267
     22  CD2       41.0630  -29.3610   16.9480 C.ar   27  HIS27       0.1154
     23  CE1       41.0250  -27.5010   15.7780 C.ar   27  HIS27       0.1986
     24  NE2       41.6110  -28.6810   15.8850 N.ar   27  HIS27      -0.2212
     25  N         38.1140  -27.4860   21.4900 N.am   28  GLY28      -0.1954
     26  CA        37.1870  -27.5510   22.6110 C.3    28  GLY28       0.1869
     27  C         35.8070  -27.0170   22.2430 C.2    28  GLY28       0.2309
     28  O         35.6840  -26.1490   21.3690 O.2    28  GLY28      -0.2863
     29  N         31.9650  -26.1440   24.4730 N.3    29  THR29      -0.1203
     30  CA        31.0640  -26.1610   25.6220 C.3    29  THR29       0.1994
     31  C         29.8400  -27.0210   25.3300 C.2    29  THR29       0.2618
     32  O         29.2070  -26.9020   24.2600 O.2    29  THR29      -0.2717
     33  CB        30.6040  -24.7620   25.9240 C.3    29  THR29       0.1784
     34  OG1       31.7450  -24.0010   26.3310 O.3    29  THR29      -0.2211
     35  CG2       29.6910  -24.7530   27.1900 C.3    29  THR29       0.0376
     36  N         29.5200  -27.8730   26.2940 N.am   30  ALA30      -0.1965
     37  CA        28.4380  -28.8400   26.1400 C.3    30  ALA30       0.1728
     38  C         27.8210  -29.0800   27.5040 C.2    30  ALA30       0.2616
     39  O         28.5200  -29.1900   28.5050 O.2    30  ALA30      -0.2715
     40  CB        28.9330  -30.1280   25.5550 C.3    30  ALA30       0.0334
     41  N         26.5050  -29.1570   27.5490 N.am   31  ASN31      -0.1958
     42  CA        25.8860  -29.6830   28.7640 C.3    31  ASN31       0.1819
     43  C         25.1080  -30.9330   28.4860 C.2    31  ASN31       0.2621
     44  O         24.6390  -31.5220   29.4000 O.2    31  ASN31      -0.2715
     45  CB        25.0370  -28.6370   29.4870 C.3    31  ASN31       0.1195
     46  CG        23.7690  -28.3140   28.7420 C.2    31  ASN31       0.2630
     47  OD1       23.6720  -28.5410   27.5190 O.2    31  ASN31      -0.2716
     48  ND2       22.7710  -27.7810   29.4730 N.am   31  ASN31      -0.0877
     49  N         24.9840  -31.3130   27.2140 N.am   32  ALA32      -0.1977
     50  CA        24.3160  -32.5460   26.8200 C.3    32  ALA32       0.1597
     51  C         25.3390  -33.6840   26.9610 C.2    32  ALA32       0.2287
     52  O         25.9470  -34.1410   25.9860 O.2    32  ALA32      -0.2864
     53  CB        23.7630  -32.4420   25.3680 C.3    32  ALA32       0.0319
     54  N         26.5320  -35.3080   23.2270 N.3    45  SER45      -0.1202
     55  CA        25.6660  -35.0490   22.0800 C.3    45  SER45       0.2020
     56  C         26.0870  -33.7810   21.3570 C.2    45  SER45       0.2619
     57  O         26.1040  -32.6730   21.9480 O.2    45  SER45      -0.2717
     58  CB        24.2130  -34.9370   22.5140 C.3    45  SER45       0.2103
     59  OG        23.3730  -34.6740   21.4000 O.3    45  SER45      -0.2182
     60  N         26.4440  -33.9540   20.0790 N.am   46  ILE46      -0.1965
     61  CA        27.0290  -32.8630   19.2960 C.3    46  ILE46       0.1727
     62  C         26.1880  -32.5110   18.0660 C.2    46  ILE46       0.2616
     63  O         25.7890  -33.3980   17.3170 O.2    46  ILE46      -0.2715
     64  CB        28.4760  -33.2020   18.9210 C.3    46  ILE46       0.0290
     65  CG1       29.3580  -33.1210   20.1820 C.3    46  ILE46       0.0022
     66  CG2       29.0240  -32.2300   17.8710 C.3    46  ILE46       0.0023
     67  CD1       30.2890  -34.2420   20.3300 C.3    46  ILE46       0.0001
     68  N         25.9460  -31.2170   17.8670 N.am   47  GLY47      -0.1955
     69  CA        25.1120  -30.7520   16.7780 C.3    47  GLY47       0.1869
     70  C         25.7500  -31.0190   15.4290 C.2    47  GLY47       0.2309
     71  O         26.9830  -31.0100   15.3010 O.2    47  GLY47      -0.2863
     72  N         26.0580  -29.2640   12.7910 N.3    49  LYS49      -0.1231
     73  CA        26.7940  -28.1560   12.1890 C.3    49  LYS49       0.1693
     74  C         28.0420  -27.7740   13.0120 C.2    49  LYS49       0.2592
     75  O         28.7480  -26.7990   12.6800 O.2    49  LYS49      -0.2718
     76  CB        25.8770  -26.9240   12.0560 C.3    49  LYS49       0.0285
     77  CG        24.7710  -27.0440   10.9860 C.3    49  LYS49       0.0035
     78  CD        23.8620  -25.8030   10.9850 C.3    49  LYS49       0.0206
     79  CE        22.6180  -25.9910   11.8780 C.3    49  LYS49       0.1093
     80  NZ        22.0250  -24.7010   12.3320 N.3    49  LYS49      -0.1314
     81  N         28.2940  -28.5030   14.1020 N.am   50  ALA50      -0.1966
     82  CA        29.4150  -28.1540   14.9720 C.3    50  ALA50       0.1728
     83  C         30.7300  -28.6570   14.4010 C.2    50  ALA50       0.2616
     84  O         30.8470  -29.8160   13.9920 O.2    50  ALA50      -0.2715
     85  CB        29.1980  -28.6770   16.4070 C.3    50  ALA50       0.0334
     86  N         31.7220  -27.7750   14.3860 N.am   51  LYS51      -0.1977
     87  CA        33.0830  -28.1310   13.9860 C.3    51  LYS51       0.1596
     88  C         33.6160  -29.3500   14.7490 C.2    51  LYS51       0.2287
     89  O         34.2820  -30.2020   14.1710 O.2    51  LYS51      -0.2864
     90  CB        34.0120  -26.9360   14.1740 C.3    51  LYS51       0.0298
     91  CG        33.6240  -25.6970   13.3310 C.3    51  LYS51       0.0038
     92  CD        34.6560  -24.5760   13.4680 C.3    51  LYS51       0.0206
     93  CE        34.1290  -23.2720   12.9000 C.3    51  LYS51       0.1093
     94  NZ        34.0980  -22.1830   13.9160 N.3    51  LYS51      -0.1314
     95  N         32.1070  -31.9680   15.6280 N.3    52  LEU52      -0.1245
     96  CA        31.5890  -33.2360   15.1390 C.3    52  LEU52       0.1561
     97  C         32.5990  -33.9820   14.3020 C.2    52  LEU52       0.2260
     98  O         32.9080  -35.1410   14.6030 O.2    52  LEU52      -0.2867
     99  CB        30.2940  -33.0690   14.3520 C.3    52  LEU52       0.0270
    100  CG        29.5330  -34.3830   14.0980 C.3    52  LEU52       0.0019
    101  CD1       28.0750  -34.2310   14.4300 C.3    52  LEU52       0.0001
    102  CD2       29.6690  -34.8070   12.6830 C.3    52  LEU52       0.0001
    103  N         33.8300  -18.9200   26.5380 N.3    75  ASN75      -0.1225
    104  CA        34.8710  -19.0820   25.5370 C.3    75  ASN75       0.1785
    105  C         34.5920  -20.2060   24.5720 C.2    75  ASN75       0.2597
    106  O         34.5970  -19.9990   23.3620 O.2    75  ASN75      -0.2718
    107  CB        36.2670  -19.2900   26.1670 C.3    75  ASN75       0.1169
    108  CG        37.3840  -19.4300   25.0880 C.2    75  ASN75       0.2627
    109  OD1       37.7440  -18.4570   24.4540 O.2    75  ASN75      -0.2716
    110  ND2       37.8750  -20.6380   24.8690 N.am   75  ASN75      -0.0877
    111  N         34.3680  -21.3990   25.1050 N.am   76  PHE76      -0.1962
    112  CA        34.2370  -22.5720   24.2520 C.3    76  PHE76       0.1771
    113  C         32.8310  -22.6950   23.6910 C.2    76  PHE76       0.2619
    114  O         32.5210  -23.6320   22.9670 O.2    76  PHE76      -0.2715
    115  CB        34.6810  -23.8050   25.0170 C.3    76  PHE76       0.0574
    116  CG        36.1660  -23.8850   25.2330 C.ar   76  PHE76      -0.0200
    117  CD1       37.0130  -24.2010   24.2030 C.ar   76  PHE76      -0.0042
    118  CD2       36.7060  -23.6660   26.5040 C.ar   76  PHE76      -0.0042
    119  CE1       38.3720  -24.3030   24.4160 C.ar   76  PHE76      -0.0003
    120  CE2       38.0680  -23.7660   26.7220 C.ar   76  PHE76      -0.0003
    121  CZ        38.9000  -24.0870   25.6710 C.ar   76  PHE76      -0.0000
    122  N         31.9850  -21.7190   24.0160 N.am   77  ALA77      -0.1963
    123  CA        30.6490  -21.6300   23.4400 C.3    77  ALA77       0.1728
    124  C         30.5770  -20.6170   22.2960 C.2    77  ALA77       0.2617
    125  O         29.4930  -20.3970   21.7300 O.2    77  ALA77      -0.2715
    126  CB        29.6370  -21.2820   24.4930 C.3    77  ALA77       0.0334
    127  N         31.7110  -20.0100   21.9550 N.am   78  GLY78      -0.1940
    128  CA        31.7710  -19.0610   20.8580 C.3    78  GLY78       0.2014
    129  C         31.1400  -17.7280   21.2380 C.2    78  GLY78       0.2639
    130  O         30.6570  -16.9900   20.3790 O.2    78  GLY78      -0.2714
    131  N         31.1460  -17.4020   22.5230 N.am   79  GLN79      -0.1963
    132  CA        30.4680  -16.2060   22.9990 C.3    79  GLN79       0.1733
    133  C         31.3710  -15.0120   23.3420 C.2    79  GLN79       0.2616
    134  O         30.8830  -13.9730   23.7890 O.2    79  GLN79      -0.2715
    135  CB        29.6120  -16.5530   24.1980 C.3    79  GLN79       0.0408
    136  CG        28.3410  -17.2840   23.8080 C.3    79  GLN79       0.0908
    137  CD        27.6400  -17.8250   25.0030 C.2    79  GLN79       0.2608
    138  OE1       28.1850  -17.7460   26.1180 O.2    79  GLN79      -0.2717
    139  NE2       26.4160  -18.3610   24.8090 N.am   79  GLN79      -0.0878
    140  N         32.6780  -15.1670   23.1420 N.am   80  LEU80      -0.1977
    141  CA        33.6220  -14.0790   23.3580 C.3    80  LEU80       0.1596
    142  C         34.2330  -13.6710   22.0210 C.2    80  LEU80       0.2287
    143  O         34.5670  -14.5190   21.1830 O.2    80  LEU80      -0.2864
    144  CB        34.7330  -14.4800   24.3490 C.3    80  LEU80       0.0297
    145  CG        34.3960  -15.1370   25.7040 C.3    80  LEU80       0.0022
    146  CD1       35.6530  -15.4050   26.5170 C.3    80  LEU80       0.0001
    147  CD2       33.4540  -14.2760   26.5070 C.3    80  LEU80       0.0001
    148  N         39.2700  -15.0750   21.8030 N.3    83  PRO83      -0.2102
    149  CA        39.4590  -16.3180   22.5650 C.3    83  PRO83       0.1504
    150  C         40.4100  -16.0600   23.7250 C.2    83  PRO83       0.2575
    151  O         41.2950  -15.2110   23.6180 O.2    83  PRO83      -0.2718
    152  CB        40.0950  -17.2740   21.5410 C.3    83  PRO83       0.0282
    153  CG        39.7050  -16.6980   20.1960 C.3    83  PRO83       0.0208
    154  CD        39.7660  -15.1970   20.4120 C.3    83  PRO83       0.0893
    155  N         40.2050  -16.7560   24.8370 N.am   84  VAL84      -0.1980
    156  CA        41.1530  -16.6820   25.9430 C.3    84  VAL84       0.1595
    157  C         42.2560  -17.7240   25.7440 C.2    84  VAL84       0.2287
    158  O         42.0950  -18.6930   24.9830 O.2    84  VAL84      -0.2864
    159  CB        40.4550  -16.7620   27.3520 C.3    84  VAL84       0.0276
    160  CG1       39.0580  -16.1910   27.2930 C.3    84  VAL84       0.0022
    161  CG2       40.4240  -18.1840   27.9130 C.3    84  VAL84       0.0022
    162  N         43.8500  -20.6390   27.0060 N.3    86  VAL86      -0.1245
    163  CA        43.4470  -21.6970   27.9250 C.3    86  VAL86       0.1561
    164  C         44.6510  -22.5630   28.2680 C.2    86  VAL86       0.2260
    165  O         45.4500  -22.9370   27.3890 O.2    86  VAL86      -0.2867
    166  CB        42.2880  -22.5410   27.3390 C.3    86  VAL86       0.0252
    167  CG1       41.8050  -23.6070   28.3270 C.3    86  VAL86       0.0019
    168  CG2       41.1300  -21.6380   26.9440 C.3    86  VAL86       0.0019
    169  N         46.0160  -25.9460   29.1230 N.3    88  PHE88      -0.1241
    170  CA        45.7490  -27.3760   28.9590 C.3    88  PHE88       0.1605
    171  C         46.7860  -28.2380   29.6690 C.2    88  PHE88       0.2264
    172  O         47.9180  -27.8170   29.8460 O.2    88  PHE88      -0.2867
    173  CB        45.7130  -27.7430   27.4690 C.3    88  PHE88       0.0534
    174  CG        44.5590  -27.1370   26.7370 C.ar   88  PHE88      -0.0203
    175  CD1       44.7610  -26.0760   25.8690 C.ar   88  PHE88      -0.0042
    176  CD2       43.2590  -27.5940   26.9570 C.ar   88  PHE88      -0.0042
    177  CE1       43.6850  -25.4820   25.1960 C.ar   88  PHE88      -0.0003
    178  CE2       42.1580  -27.0110   26.2940 C.ar   88  PHE88      -0.0003
    179  CZ        42.3740  -25.9570   25.4090 C.ar   88  PHE88      -0.0000
    180  N         21.5240  -34.0530   15.7410 N.3   117  HIS117     -0.1241
    181  CA        22.7040  -34.2210   16.5840 C.3   117  HIS117      0.1621
    182  C         23.2710  -35.6150   16.3940 C.2   117  HIS117      0.2264
    183  O         22.5840  -36.5010   15.8820 O.2   117  HIS117     -0.2867
    184  CB        22.3330  -34.0410   18.0630 C.3   117  HIS117      0.0745
    185  CG        22.3890  -32.6320   18.5410 C.ar  117  HIS117      0.0817
    186  ND1       21.5200  -31.6600   18.1000 N.ar  117  HIS117     -0.2268
    187  CD2       23.2010  -32.0300   19.4400 C.ar  117  HIS117      0.1154
    188  CE1       21.8080  -30.5130   18.6890 C.ar  117  HIS117      0.1986
    189  NE2       22.8250  -30.7100   19.5090 N.ar  117  HIS117     -0.2212
    190  N         23.9460  -24.6740   35.0830 N.3   137  PHE137     -0.1241
    191  CA        23.2270  -23.9970   34.0140 C.3   137  PHE137      0.1605
    192  C         21.7790  -24.3790   34.1460 C.2   137  PHE137      0.2264
    193  O         21.4500  -25.5770   34.1730 O.2   137  PHE137     -0.2867
    194  CB        23.7820  -24.3950   32.6320 C.3   137  PHE137      0.0534
    195  CG        23.3280  -23.4890   31.5030 C.ar  137  PHE137     -0.0203
    196  CD1       23.7840  -22.1750   31.4160 C.ar  137  PHE137     -0.0042
    197  CD2       22.4520  -23.9550   30.5230 C.ar  137  PHE137     -0.0042
    198  CE1       23.3450  -21.3300   30.3630 C.ar  137  PHE137     -0.0003
    199  CE2       22.0410  -23.1160   29.4640 C.ar  137  PHE137     -0.0003
    200  CZ        22.4730  -21.7930   29.4120 C.ar  137  PHE137     -0.0000
    201  N         23.6040  -19.0290   34.2360 N.3   142  TYR142     -0.1241
    202  CA        24.6070  -19.6730   35.1030 C.3   142  TYR142      0.1605
    203  C         24.1930  -19.5610   36.5540 C.2   142  TYR142      0.2264
    204  O         23.6370  -18.5590   36.9680 O.2   142  TYR142     -0.2867
    205  CB        26.0160  -19.0690   34.8980 C.3   142  TYR142      0.0534
    206  CG        26.5970  -19.4170   33.5270 C.ar  142  TYR142     -0.0201
    207  CD1       26.9410  -20.7410   33.2050 C.ar  142  TYR142     -0.0009
    208  CD2       26.7830  -18.4180   32.5390 C.ar  142  TYR142     -0.0009
    209  CE1       27.4660  -21.0750   31.9230 C.ar  142  TYR142      0.0417
    210  CE2       27.2900  -18.7290   31.2860 C.ar  142  TYR142      0.0417
    211  CZ        27.6450  -20.0510   30.9760 C.ar  142  TYR142      0.1957
    212  OH        28.1440  -20.3570   29.7140 O.3   142  TYR142     -0.2866
@<TRIPOS>BOND
     1    78    77    1
     2    78    79    1
     3    77    76    1
     4    79    80    1
     5    76    73    1
     6    73    72    1
     7    73    74    1
     8    75    74    2
     9   102   100    1
    10    93    92    1
    11    93    94    1
    12    74    81   am
    13    91    92    1
    14    91    90    1
    15    87    90    1
    16    87    86    1
    17    87    88    1
    18    84    83    2
    19   100    99    1
    20   100   101    1
    21    81    82    1
    22    89    88    2
    23    97    98    2
    24    97    96    1
    25    99    96    1
    26    86    83   am
    27    83    82    1
    28    82    85    1
    29    96    95    1
    30    71    70    2
    31    70    69    1
    32   180   181    1
    33    23    24   ar
    34    23    21   ar
    35   183   182    2
    36    24    22   ar
    37   182   181    1
    38   181   184    1
    39    21    20   ar
    40    69    68    1
    41    22    20   ar
    42    63    62    2
    43    20    19    1
    44    68    62   am
    45    66    64    1
    46   184   185    1
    47    62    61    1
    48   186   185   ar
    49   186   188   ar
    50   185   187   ar
    51    19    16    1
    52   188   189   ar
    53    64    61    1
    54    64    65    1
    55    61    60    1
    56   187   189   ar
    57     8     9    1
    58    11    10    2
    59    16    15    1
    60    16    17    1
    61    60    56   am
    62    15    10   am
    63    10     9    1
    64    65    67    1
    65   153   154    1
    66   153   152    1
    67   130   129    2
    68   154   148    1
    69     9    12    1
    70   128   129    1
    71   128   127    1
    72    17    25   am
    73    17    18    2
    74   143   142    2
    75   129   131   am
    76    56    57    2
    77    56    55    1
    78    28    27    2
    79    59    58    1
    80    25    26    1
    81   152   149    1
    82   125   124    2
    83   148   149    1
    84    12    14    1
    85    12    13    1
    86   127   124   am
    87   142   141    1
    88    55    58    1
    89    55    54    1
    90    27    26    1
    91   124   123    1
    92   131   132    1
    93   149   150    1
    94   114   113    2
    95   132   133    1
    96   132   135    1
    97   140   133   am
    98   140   141    1
    99   133   134    2
   100   141   144    1
   101   106   105    2
   102   123   122    1
   103   123   126    1
   104   151   150    2
   105   113   122   am
   106   113   112    1
   107   150   155   am
   108   136   135    1
   109   136   137    1
   110   117   119   ar
   111   117   116   ar
   112   112   115    1
   113   112   111    1
   114    32    31    2
   115   144   145    1
   116   119   121   ar
   117   109   108    2
   118    29    30    1
   119   105   111   am
   120   105   104    1
   121   139   137   am
   122   155   156    1
   123   110   108   am
   124   158   157    2
   125   137   138    2
   126   115   116    1
   127   108   107    1
   128   177   179   ar
   129   177   175   ar
   130   116   118   ar
   131    31    30    1
   132    31    36   am
   133    53    50    1
   134   179   178   ar
   135   104   107    1
   136   104   103    1
   137    40    37    1
   138    30    33    1
   139   121   120   ar
   140   145   147    1
   141   145   146    1
   142   157   156    1
   143   175   174   ar
   144    33    34    1
   145    33    35    1
   146   156   159    1
   147    52    51    2
   148    37    36    1
   149    37    38    1
   150   178   176   ar
   151   118   120   ar
   152   174   176   ar
   153   174   173    1
   154    50    51    1
   155    50    49    1
   156   168   166    1
   157   162   163    1
   158    49    43   am
   159   160   159    1
   160   166   163    1
   161   166   167    1
   162   159   161    1
   163   165   164    2
   164   173   170    1
   165    38    41   am
   166    38    39    2
   167    47    46    2
   168    41    42    1
   169   163   164    1
   170    43    42    1
   171    43    44    2
   172    46    48   am
   173    46    45    1
   174    42    45    1
   175   170   169    1
   176   170   171    1
   177   200   199   ar
   178   200   198   ar
   179   199   197   ar
   180   171   172    2
   181   212   211    1
   182   198   196   ar
   183   197   195   ar
   184     6     5    1
   185   211   210   ar
   186   211   209   ar
   187   210   208   ar
   188   196   195   ar
   189   195   194    1
   190   209   207   ar
   191     3     2    1
   192     3     4    2
   193     2     5    1
   194     2     1    1
   195     5     7    1
   196   208   206   ar
   197   194   191    1
   198   207   206   ar
   199   206   205    1
   200   191   192    1
   201   191   190    1
   202   192   193    2
   203   201   202    1
   204   205   202    1
   205   202   203    1
   206   203   204    2
