@<TRIPOS>MOLECULE
tmp/1rz1H01.pdb
 121 114 0 0 0
SMALL
GASTEIGER

@<TRIPOS>ATOM
      1  N          9.9920  -25.3790   23.5360 N.3     5  PHE5       -0.1227
      2  CA        10.8220  -26.5740   23.7040 C.3     5  PHE5        0.1736
      3  C         12.1600  -26.2550   24.3980 C.2     5  PHE5        0.2595
      4  O         12.5680  -26.9570   25.3310 O.2     5  PHE5       -0.2718
      5  CB        11.0380  -27.2460   22.3570 C.3     5  PHE5        0.0547
      6  CG        11.8940  -28.4820   22.4140 C.ar    5  PHE5       -0.0202
      7  CD1       11.4130  -29.6650   22.9780 C.ar    5  PHE5       -0.0042
      8  CD2       13.1840  -28.4640   21.9050 C.ar    5  PHE5       -0.0042
      9  CE1       12.2080  -30.8040   23.0330 C.ar    5  PHE5       -0.0003
     10  CE2       13.9950  -29.6050   21.9630 C.ar    5  PHE5       -0.0003
     11  CZ        13.5040  -30.7740   22.5220 C.ar    5  PHE5       -0.0000
     12  N         12.8140  -25.1790   23.9640 N.am    6  ARG6       -0.1966
     13  CA        14.0670  -24.7540   24.5550 C.3     6  ARG6        0.1729
     14  C         13.8940  -24.3290   25.9930 C.2     6  ARG6        0.2616
     15  O         14.7520  -24.6330   26.8380 O.2     6  ARG6       -0.2715
     16  CB        14.7150  -23.6330   23.7300 C.3     6  ARG6        0.0348
     17  CG        15.6370  -24.1680   22.6240 C.3     6  ARG6        0.0492
     18  CD        16.1610  -23.1200   21.6680 C.3     6  ARG6        0.2205
     19  NE        17.2340  -22.3190   22.2710 N.pl3   6  ARG6       -0.0865
     20  CZ        17.8710  -21.3270   21.6530 C.cat   6  ARG6        0.5346
     21  NH1       17.5550  -21.0050   20.4000 N.pl3   6  ARG6        0.1354
     22  NH2       18.8290  -20.6590   22.2870 N.pl3   6  ARG6        0.1354
     23  N         12.7970  -23.6310   26.2780 N.am    7  ASN7       -0.1972
     24  CA        12.4940  -23.2130   27.6450 C.3     7  ASN7        0.1688
     25  C         12.2690  -24.4440   28.5410 C.2     7  ASN7        0.2292
     26  O         12.7380  -24.4990   29.6780 O.2     7  ASN7       -0.2864
     27  CB        11.2440  -22.3110   27.6880 C.3     7  ASN7        0.1181
     28  CG        11.5170  -20.9040   27.1780 C.2     7  ASN7        0.2629
     29  OD1       12.6640  -20.5360   26.8970 O.2     7  ASN7       -0.2716
     30  ND2       10.4500  -20.1040   27.0430 N.am    7  ASN7       -0.0877
     31  N         15.4840  -26.2320   29.1620 N.3     9  GLY9       -0.1225
     32  CA        16.2530  -25.4590   30.1100 C.3     9  GLY9        0.1811
     33  C         15.8250  -25.6530   31.5470 C.2     9  GLY9        0.2280
     34  O         16.5530  -25.2440   32.4610 O.2     9  GLY9       -0.2866
     35  N         15.6980  -28.4380   32.9330 N.3    11  PHE11      -0.1241
     36  CA        16.5410  -29.5020   33.4730 C.3    11  PHE11       0.1605
     37  C         17.9160  -28.9660   33.7490 C.2    11  PHE11       0.2264
     38  O         18.6850  -28.7100   32.8110 O.2    11  PHE11      -0.2867
     39  CB        16.5870  -30.7090   32.5170 C.3    11  PHE11       0.0534
     40  CG        17.3620  -31.8630   33.0530 C.ar   11  PHE11      -0.0203
     41  CD1       16.8590  -32.6490   34.1190 C.ar   11  PHE11      -0.0042
     42  CD2       18.5900  -32.1900   32.4920 C.ar   11  PHE11      -0.0042
     43  CE1       17.5830  -33.7630   34.5830 C.ar   11  PHE11      -0.0003
     44  CE2       19.3440  -33.2930   32.9880 C.ar   11  PHE11      -0.0003
     45  CZ        18.8370  -34.0670   34.0330 C.ar   11  PHE11      -0.0000
     46  N         26.5050  -29.1570   27.5490 N.3    31  ASN31      -0.1225
     47  CA        25.8860  -29.6830   28.7640 C.3    31  ASN31       0.1785
     48  C         25.1080  -30.9330   28.4860 C.2    31  ASN31       0.2597
     49  O         24.6390  -31.5220   29.4000 O.2    31  ASN31      -0.2718
     50  CB        25.0370  -28.6370   29.4870 C.3    31  ASN31       0.1169
     51  CG        23.7690  -28.3140   28.7420 C.2    31  ASN31       0.2627
     52  OD1       23.6720  -28.5410   27.5190 O.2    31  ASN31      -0.2716
     53  ND2       22.7710  -27.7810   29.4730 N.am   31  ASN31      -0.0877
     54  N         24.9840  -31.3130   27.2140 N.am   32  ALA32      -0.1979
     55  CA        24.3160  -32.5460   26.8200 C.3    32  ALA32       0.1597
     56  C         25.3390  -33.6840   26.9610 C.2    32  ALA32       0.2287
     57  O         25.9470  -34.1410   25.9860 O.2    32  ALA32      -0.2864
     58  CB        23.7630  -32.4420   25.3680 C.3    32  ALA32       0.0319
     59  N         26.5320  -35.3080   23.2270 N.3    45  SER45      -0.1217
     60  CA        25.6660  -35.0490   22.0800 C.3    45  SER45       0.1889
     61  C         26.0870  -33.7810   21.3570 C.2    45  SER45       0.2288
     62  O         26.1040  -32.6730   21.9480 O.2    45  SER45      -0.2866
     63  CB        24.2130  -34.9370   22.5140 C.3    45  SER45       0.2089
     64  OG        23.3730  -34.6740   21.4000 O.3    45  SER45      -0.2183
     65  N         25.9460  -31.2170   17.8670 N.3    47  GLY47      -0.1225
     66  CA        25.1120  -30.7520   16.7780 C.3    47  GLY47       0.1811
     67  C         25.7500  -31.0190   15.4290 C.2    47  GLY47       0.2280
     68  O         26.9830  -31.0100   15.3010 O.2    47  GLY47      -0.2866
     69  N         31.9850  -21.7190   24.0160 N.3    77  ALA77      -0.1245
     70  CA        30.6490  -21.6300   23.4400 C.3    77  ALA77       0.1562
     71  C         30.5770  -20.6170   22.2960 C.2    77  ALA77       0.2260
     72  O         29.4930  -20.3970   21.7300 O.2    77  ALA77      -0.2867
     73  CB        29.6370  -21.2820   24.4930 C.3    77  ALA77       0.0290
     74  N         31.1460  -17.4020   22.5230 N.3    79  GLN79      -0.1245
     75  CA        30.4680  -16.2060   22.9990 C.3    79  GLN79       0.1566
     76  C         31.3710  -15.0120   23.3420 C.2    79  GLN79       0.2260
     77  O         30.8830  -13.9730   23.7890 O.2    79  GLN79      -0.2867
     78  CB        29.6120  -16.5530   24.1980 C.3    79  GLN79       0.0367
     79  CG        28.3410  -17.2840   23.8080 C.3    79  GLN79       0.0905
     80  CD        27.6400  -17.8250   25.0030 C.2    79  GLN79       0.2608
     81  OE1       28.1850  -17.7460   26.1180 O.2    79  GLN79      -0.2717
     82  NE2       26.4160  -18.3610   24.8090 N.am   79  GLN79      -0.0878
     83  N         18.8620  -33.7180   14.7650 N.3   116  ASP116     -0.1225
     84  CA        19.8310  -32.6200   14.6710 C.3   116  ASP116      0.1805
     85  C         21.2920  -32.8980   15.1020 C.2   116  ASP116      0.2597
     86  O         22.1820  -32.0250   14.9120 O.2   116  ASP116     -0.2718
     87  CB        19.3490  -31.5460   15.6700 C.3   116  ASP116      0.1424
     88  CG        18.6510  -30.4250   15.0140 C.2   116  ASP116      0.3668
     89  OD1       18.1780  -29.5240   15.7270 O.co2 116  ASP116     -0.2456
     90  OD2       18.5380  -30.3370   13.7700 O.co2 116  ASP116     -0.2456
     91  N         21.5240  -34.0530   15.7410 N.am  117  HIS117     -0.1975
     92  CA        22.7040  -34.2210   16.5840 C.3   117  HIS117      0.1656
     93  C         23.2710  -35.6150   16.3940 C.2   117  HIS117      0.2291
     94  O         22.5840  -36.5010   15.8820 O.2   117  HIS117     -0.2864
     95  CB        22.3330  -34.0410   18.0630 C.3   117  HIS117      0.0771
     96  CG        22.3890  -32.6320   18.5410 C.ar  117  HIS117      0.0820
     97  ND1       21.5200  -31.6600   18.1000 N.ar  117  HIS117     -0.2267
     98  CD2       23.2010  -32.0300   19.4400 C.ar  117  HIS117      0.1154
     99  CE1       21.8080  -30.5130   18.6890 C.ar  117  HIS117      0.1986
    100  NE2       22.8250  -30.7100   19.5090 N.ar  117  HIS117     -0.2212
    101  N         23.9460  -24.6740   35.0830 N.3   137  PHE137     -0.1241
    102  CA        23.2270  -23.9970   34.0140 C.3   137  PHE137      0.1605
    103  C         21.7790  -24.3790   34.1460 C.2   137  PHE137      0.2264
    104  O         21.4500  -25.5770   34.1730 O.2   137  PHE137     -0.2867
    105  CB        23.7820  -24.3950   32.6320 C.3   137  PHE137      0.0534
    106  CG        23.3280  -23.4890   31.5030 C.ar  137  PHE137     -0.0203
    107  CD1       23.7840  -22.1750   31.4160 C.ar  137  PHE137     -0.0042
    108  CD2       22.4520  -23.9550   30.5230 C.ar  137  PHE137     -0.0042
    109  CE1       23.3450  -21.3300   30.3630 C.ar  137  PHE137     -0.0003
    110  CE2       22.0410  -23.1160   29.4640 C.ar  137  PHE137     -0.0003
    111  CZ        22.4730  -21.7930   29.4120 C.ar  137  PHE137     -0.0000
    112  N         17.6020  -22.7410   33.2170 N.3   139  SER139     -0.1202
    113  CA        16.7160  -21.7190   32.6530 C.3   139  SER139      0.2020
    114  C         17.4760  -20.6570   31.8920 C.2   139  SER139      0.2619
    115  O         17.1600  -19.4850   32.0370 O.2   139  SER139     -0.2717
    116  CB        15.9090  -21.0150   33.7530 C.3   139  SER139      0.2103
    117  OG        14.7920  -21.7880   34.1170 O.3   139  SER139     -0.2182
    118  N         18.4960  -21.0620   31.1230 N.am  140  GLY140     -0.1956
    119  CA        19.2570  -20.1210   30.3140 C.3   140  GLY140      0.1869
    120  C         20.3000  -19.3140   31.0500 C.2   140  GLY140      0.2309
    121  O         20.9310  -18.4580   30.4280 O.2   140  GLY140     -0.2863
@<TRIPOS>BOND
     1    90    88   ar
     2    84    83    1
     3    84    85    1
     4    84    87    1
     5    86    85    2
     6    88    87    1
     7    88    89   ar
     8    85    91   am
     9    68    67    2
    10    67    66    1
    11    91    92    1
    12    94    93    2
    13    93    92    1
    14    92    95    1
    15    66    65    1
    16    95    96    1
    17    97    96   ar
    18    97    99   ar
    19    96    98   ar
    20    99   100   ar
    21    98   100   ar
    22    21    20    1
    23    61    62    2
    24    61    60    1
    25    64    63    1
    26    20    19    2
    27    20    22    1
    28    18    19    1
    29    18    17    1
    30    72    71    2
    31     8    10   ar
    32     8     6   ar
    33    10    11   ar
    34    60    63    1
    35    60    59    1
    36    71    70    1
    37     5     6    1
    38     5     2    1
    39     6     7   ar
    40    11     9   ar
    41    74    75    1
    42    17    16    1
    43     7     9   ar
    44    75    76    1
    45    75    78    1
    46    76    77    2
    47    70    69    1
    48    70    73    1
    49     1     2    1
    50     2     3    1
    51    16    13    1
    52    79    78    1
    53    79    80    1
    54    12     3   am
    55    12    13    1
    56     3     4    2
    57    13    14    1
    58    82    80   am
    59    80    81    2
    60    58    55    1
    61    57    56    2
    62    14    23   am
    63    14    15    2
    64    23    24    1
    65    55    56    1
    66    55    54    1
    67    29    28    2
    68    30    28   am
    69    28    27    1
    70    54    48   am
    71    52    51    2
    72    46    47    1
    73    24    27    1
    74    24    25    1
    75    48    47    1
    76    48    49    2
    77    25    26    2
    78    51    53   am
    79    51    50    1
    80    47    50    1
    81    31    32    1
    82   111   110   ar
    83   111   109   ar
    84   110   108   ar
    85    32    33    1
    86   119   120    1
    87   119   118    1
    88   109   107   ar
    89   121   120    2
    90   108   106   ar
    91   118   114   am
    92   107   106   ar
    93   106   105    1
    94    33    34    2
    95   114   115    2
    96   114   113    1
    97    42    44   ar
    98    42    40   ar
    99    39    40    1
   100    39    36    1
   101   105   102    1
   102   113   112    1
   103   113   116    1
   104    38    37    2
   105    35    36    1
   106    44    45   ar
   107    40    41   ar
   108    36    37    1
   109   116   117    1
   110   102   103    1
   111   102   101    1
   112    45    43   ar
   113    41    43   ar
   114   103   104    2
