@<TRIPOS>MOLECULE
tmp/1rzhB01.pdb
 137 135 0 0 0
SMALL
GASTEIGER

@<TRIPOS>ATOM
      1  N         88.7240    1.5030  -13.9130 N.3   143  GLY143     -0.1210
      2  CA        89.7870    2.4630  -14.1500 C.3   143  GLY143      0.1956
      3  C         90.4940    2.6980  -12.8270 C.2   143  GLY143      0.2612
      4  O         89.9760    2.3130  -11.7820 O.2   143  GLY143     -0.2717
      5  N         91.6620    3.3340  -12.8640 N.am  144  LYS144     -0.1965
      6  CA        92.4410    3.5840  -11.6530 C.3   144  LYS144      0.1728
      7  C         92.3120    5.0220  -11.1260 C.2   144  LYS144      0.2616
      8  O         93.2030    5.5150  -10.4330 O.2   144  LYS144     -0.2715
      9  CB        93.9130    3.2670  -11.9290 C.3   144  LYS144      0.0311
     10  CG        94.1420    1.8880  -12.5590 C.3   144  LYS144      0.0038
     11  CD        93.6000    0.7710  -11.6790 C.3   144  LYS144      0.0206
     12  CE        93.7550   -0.5870  -12.3610 C.3   144  LYS144      0.1093
     13  NZ        93.0300   -0.6220  -13.6680 N.3   144  LYS144     -0.1314
     14  N         91.2010    5.6800  -11.4370 N.am  145  HIS145     -0.1973
     15  CA        90.9890    7.0620  -11.0010 C.3   145  HIS145      0.1656
     16  C         91.1260    7.2540   -9.4950 C.2   145  HIS145      0.2291
     17  O         91.6940    8.2490   -9.0450 O.2   145  HIS145     -0.2864
     18  CB        89.6140    7.5620  -11.4590 C.3   145  HIS145      0.0771
     19  CG        89.3930    7.4410  -12.9350 C.ar  145  HIS145      0.0820
     20  ND1       89.2000    6.2270  -13.5610 N.ar  145  HIS145     -0.2267
     21  CD2       89.3630    8.3780  -13.9130 C.ar  145  HIS145      0.1154
     22  CE1       89.0600    6.4220  -14.8610 C.ar  145  HIS145      0.1986
     23  NE2       89.1560    7.7180  -15.1010 N.ar  145  HIS145     -0.2212
     24  N         94.7640    7.2570   -8.4440 N.3   148  TRP148     -0.1227
     25  CA        95.4290    8.4730   -8.8940 C.3   148  TRP148      0.1737
     26  C         95.0040    9.6890   -8.0840 C.2   148  TRP148      0.2595
     27  O         95.8220   10.5670   -7.8020 O.2   148  TRP148     -0.2718
     28  CB        95.1730    8.6850  -10.3830 C.3   148  TRP148      0.0564
     29  CG        95.7880    7.5870  -11.1890 C.ar  148  TRP148      0.0003
     30  CD1       95.2140    6.9070  -12.2180 C.ar  148  TRP148      0.0946
     31  CD2       97.0830    7.0000  -10.9920 C.ar  148  TRP148      0.0152
     32  NE1       96.0650    5.9300  -12.6760 N.ar  148  TRP148     -0.2442
     33  CE2       97.2200    5.9630  -11.9400 C.ar  148  TRP148      0.0810
     34  CE3       98.1400    7.2500  -10.1050 C.ar  148  TRP148      0.0012
     35  CZ2       98.3710    5.1730  -12.0280 C.ar  148  TRP148      0.0191
     36  CZ3       99.2880    6.4630  -10.1920 C.ar  148  TRP148      0.0001
     37  CH2       99.3910    5.4370  -11.1480 C.ar  148  TRP148      0.0015
     38  N         93.7350    9.7410   -7.6980 N.am  149  ALA149     -0.1980
     39  CA        93.2540   10.8620   -6.9050 C.3   149  ALA149      0.1597
     40  C         93.8720   10.7790   -5.5090 C.2   149  ALA149      0.2287
     41  O         94.2700   11.7940   -4.9270 O.2   149  ALA149     -0.2864
     42  CB        91.7360   10.8320   -6.8210 C.3   149  ALA149      0.0319
     43  N         96.6640    9.5800   -4.7710 N.3   151  LEU151     -0.1231
     44  CA        98.0660    9.9590   -4.8810 C.3   151  LEU151      0.1693
     45  C         98.2490   11.4600   -4.6540 C.2   151  LEU151      0.2592
     46  O         99.2840   11.8960   -4.1560 O.2   151  LEU151     -0.2718
     47  CB        98.6070    9.5770   -6.2570 C.3   151  LEU151      0.0284
     48  CG       100.1260    9.6430   -6.4110 C.3   151  LEU151      0.0019
     49  CD1      100.7720    8.6890   -5.4150 C.3   151  LEU151      0.0001
     50  CD2      100.5170    9.2770   -7.8420 C.3   151  LEU151      0.0001
     51  N         97.2480   12.2510   -5.0230 N.am  152  SER152     -0.1952
     52  CA        97.3380   13.6960   -4.8340 C.3   152  SER152      0.1924
     53  C         97.3620   14.0310   -3.3440 C.2   152  SER152      0.2314
     54  O         98.1210   14.9010   -2.9090 O.2   152  SER152     -0.2863
     55  CB        96.1590   14.4040   -5.5060 C.3   152  SER152      0.2116
     56  OG        96.2620   15.8120   -5.3440 O.3   152  SER152     -0.2180
     57  N        100.6050   13.0850   -1.8880 N.3   155  TRP155     -0.1241
     58  CA       101.6260   14.0630   -2.2580 C.3   155  TRP155      0.1605
     59  C        101.8250   15.1160   -1.1560 C.2   155  TRP155      0.2264
     60  O        102.9540   15.3590   -0.7250 O.2   155  TRP155     -0.2867
     61  CB       101.2210   14.7220   -3.5800 C.3   155  TRP155      0.0550
     62  CG       101.8950   16.0260   -3.9220 C.ar  155  TRP155      0.0003
     63  CD1      101.2730   17.2200   -4.1570 C.ar  155  TRP155      0.0946
     64  CD2      103.2940   16.2520   -4.1680 C.ar  155  TRP155      0.0152
     65  NE1      102.1880   18.1690   -4.5410 N.ar  155  TRP155     -0.2442
     66  CE2      103.4350   17.6050   -4.5560 C.ar  155  TRP155      0.0810
     67  CE3      104.4380   15.4450   -4.1030 C.ar  155  TRP155      0.0012
     68  CZ2      104.6770   18.1710   -4.8800 C.ar  155  TRP155      0.0191
     69  CZ3      105.6750   16.0090   -4.4260 C.ar  155  TRP155      0.0001
     70  CH2      105.7810   17.3600   -4.8100 C.ar  155  TRP155      0.0015
     71  N        100.5300   29.3030   -4.3860 N.3   201  PHE201     -0.1241
     72  CA       100.0120   27.9380   -4.3840 C.3   201  PHE201      0.1605
     73  C         99.0740   27.6990   -3.2070 C.2   201  PHE201      0.2264
     74  O         98.2070   26.8290   -3.2680 O.2   201  PHE201     -0.2867
     75  CB       101.1700   26.9370   -4.3910 C.3   201  PHE201      0.0534
     76  CG       101.8290   26.8080   -5.7350 C.ar  201  PHE201     -0.0203
     77  CD1      101.2120   26.0940   -6.7590 C.ar  201  PHE201     -0.0042
     78  CD2      103.0320   27.4530   -6.0020 C.ar  201  PHE201     -0.0042
     79  CE1      101.7830   26.0270   -8.0320 C.ar  201  PHE201     -0.0003
     80  CE2      103.6140   27.3940   -7.2720 C.ar  201  PHE201     -0.0003
     81  CZ       102.9880   26.6810   -8.2870 C.ar  201  PHE201     -0.0000
     82  N         84.4610   14.7060  -13.9440 N.3   267  ARG267     -0.1245
     83  CA        85.8450   15.0430  -14.2760 C.3   267  ARG267      0.1563
     84  C         86.1170   16.4120  -13.6370 C.2   267  ARG267      0.2260
     85  O         87.2110   16.6670  -13.1330 O.2   267  ARG267     -0.2867
     86  CB        86.0590   15.1100  -15.7870 C.3   267  ARG267      0.0307
     87  CG        86.0310   13.7320  -16.4400 C.3   267  ARG267      0.0489
     88  CD        86.4760   13.7560  -17.8890 C.3   267  ARG267      0.2205
     89  NE        86.3190   12.4290  -18.4840 N.pl3 267  ARG267     -0.0865
     90  CZ        87.1290   11.3960  -18.2570 C.cat 267  ARG267      0.5346
     91  NH1       88.1800   11.5190  -17.4560 N.pl3 267  ARG267      0.1354
     92  NH2       86.8610   10.2180  -18.8100 N.pl3 267  ARG267      0.1354
     93  N         86.5820   15.4620   -9.8680 N.3   270  ILE270     -0.1231
     94  CA        87.8360   14.8350   -9.4820 C.3   270  ILE270      0.1692
     95  C         89.0080   15.8130   -9.5430 C.2   270  ILE270      0.2592
     96  O         89.8850   15.7890   -8.6750 O.2   270  ILE270     -0.2718
     97  CB        88.1340   13.5620  -10.3460 C.3   270  ILE270      0.0266
     98  CG1       89.1690   12.6890   -9.6280 C.3   270  ILE270      0.0019
     99  CG2       88.6530   13.9550  -11.7380 C.3   270  ILE270      0.0020
    100  CD1       89.4540   11.3450  -10.3260 C.3   270  ILE270      0.0001
    101  N         89.0160   16.6860  -10.5450 N.am  271  TRP271     -0.1976
    102  CA        90.1040   17.6490  -10.6720 C.3   271  TRP271      0.1640
    103  C         90.0230   18.7750   -9.6460 C.2   271  TRP271      0.2290
    104  O         91.0410   19.1670   -9.0720 O.2   271  TRP271     -0.2864
    105  CB        90.1590   18.2090  -12.0940 C.3   271  TRP271      0.0576
    106  CG        90.8360   17.2580  -13.0240 C.ar  271  TRP271      0.0006
    107  CD1       90.2440   16.4400  -13.9500 C.ar  271  TRP271      0.0946
    108  CD2       92.2330   16.9530  -13.0540 C.ar  271  TRP271      0.0152
    109  NE1       91.1920   15.6420  -14.5510 N.ar  271  TRP271     -0.2442
    110  CE2       92.4210   15.9380  -14.0200 C.ar  271  TRP271      0.0810
    111  CE3       93.3480   17.4380  -12.3540 C.ar  271  TRP271      0.0012
    112  CZ2       93.6800   15.4000  -14.3070 C.ar  271  TRP271      0.0191
    113  CZ3       94.6020   16.9020  -12.6380 C.ar  271  TRP271      0.0001
    114  CH2       94.7550   15.8920  -13.6080 C.ar  271  TRP271      0.0015
    115  N         91.3090   17.1130   -6.4600 N.3   274  VAL274     -0.1245
    116  CA        92.7050   16.7360   -6.5820 C.3   274  VAL274      0.1561
    117  C         93.6330   17.9460   -6.5780 C.2   274  VAL274      0.2260
    118  O         94.7320   17.8930   -6.0180 O.2   274  VAL274     -0.2867
    119  CB        92.9370   15.9160   -7.8840 C.3   274  VAL274      0.0252
    120  CG1       94.3860   16.0070   -8.3310 C.3   274  VAL274      0.0019
    121  CG2       92.5480   14.4620   -7.6380 C.3   274  VAL274      0.0019
    122  N         97.3470   19.0210   -4.7120 N.3   278  LEU278     -0.1245
    123  CA        98.4010   19.1010   -5.7090 C.3   278  LEU278      0.1561
    124  C         99.0850   20.4670   -5.5660 C.2   278  LEU278      0.2260
    125  O        100.2960   20.5480   -5.3670 O.2   278  LEU278     -0.2867
    126  CB        97.8100   18.9550   -7.1140 C.3   278  LEU278      0.0270
    127  CG        98.7750   18.9840   -8.3020 C.3   278  LEU278      0.0019
    128  CD1       99.9130   17.9940   -8.0730 C.3   278  LEU278      0.0001
    129  CD2       98.0140   18.6340   -9.5740 C.3   278  LEU278      0.0001
    130  N        102.8320   21.5800   -3.5840 N.3   282  ILE282     -0.1245
    131  CA       103.8370   22.3870   -4.2630 C.3   282  ILE282      0.1561
    132  C        104.1480   23.6150   -3.4100 C.2   282  ILE282      0.2260
    133  O        105.3110   23.9490   -3.1940 O.2   282  ILE282     -0.2867
    134  CB       103.3470   22.8600   -5.6400 C.3   282  ILE282      0.0252
    135  CG1      103.1730   21.6560   -6.5700 C.3   282  ILE282      0.0019
    136  CG2      104.3380   23.8590   -6.2400 C.3   282  ILE282      0.0019
    137  CD1      102.5740   22.0150   -7.9160 C.3   282  ILE282      0.0001
@<TRIPOS>BOND
     1    92    90    1
     2    89    90    2
     3    89    88    1
     4    90    91    1
     5    88    87    1
     6    87    86    1
     7    86    83    1
     8    23    22   ar
     9    23    21   ar
    10    22    20   ar
    11   109   110   ar
    12   109   107   ar
    13   112   110   ar
    14   112   114   ar
    15    83    82    1
    16    83    84    1
    17     2     1    1
    18     2     3    1
    19   110   108   ar
    20   107   106   ar
    21    21    19   ar
    22    13    12    1
    23    84    85    2
    24   114   113   ar
    25    20    19   ar
    26   108   106   ar
    27   108   111   ar
    28   106   105    1
    29    19    18    1
    30     5     3   am
    31     5     6    1
    32     3     4    2
    33    32    30   ar
    34    32    33   ar
    35   113   111   ar
    36    10     9    1
    37    10    11    1
    38    12    11    1
    39    30    29   ar
    40   105   102    1
    41    35    33   ar
    42    35    37   ar
    43    33    31   ar
    44     9     6    1
    45    99    97    1
    46     6     7    1
    47    18    15    1
    48    14     7   am
    49    14    15    1
    50    29    31   ar
    51    29    28    1
    52    37    36   ar
    53     7     8    2
    54    15    16    1
    55    31    34   ar
    56   102   101    1
    57   102   103    1
    58   101    95   am
    59    28    25    1
    60    97    98    1
    61    97    94    1
    62   100    98    1
    63    36    34   ar
    64    93    94    1
    65   103   104    2
    66   129   127    1
    67    95    94    1
    68    95    96    2
    69    16    17    2
    70    25    24    1
    71    25    26    1
    72   120   119    1
    73   127   128    1
    74   127   126    1
    75    81    79   ar
    76    81    80   ar
    77    26    27    2
    78    26    38   am
    79    79    77   ar
    80   137   135    1
    81   119   121    1
    82   119   116    1
    83    50    48    1
    84    38    39    1
    85    80    78   ar
    86   126   123    1
    87    39    42    1
    88    39    40    1
    89    77    76   ar
    90   116   117    1
    91   116   115    1
    92   117   118    2
    93   135   134    1
    94    48    47    1
    95    48    49    1
    96    47    44    1
    97   136   134    1
    98    78    76   ar
    99    76    75    1
   100   123   124    1
   101   123   122    1
   102   134   131    1
   103   124   125    2
   104    40    41    2
   105    55    56    1
   106    55    52    1
   107    51    52    1
   108    51    45   am
   109    44    43    1
   110    44    45    1
   111    68    70   ar
   112    68    66   ar
   113    52    53    1
   114    70    69   ar
   115    45    46    2
   116    66    65   ar
   117    66    64   ar
   118    65    63   ar
   119    69    67   ar
   120    75    72    1
   121    71    72    1
   122    72    73    1
   123   131   130    1
   124   131   132    1
   125    64    67   ar
   126    64    62   ar
   127    63    62   ar
   128    62    61    1
   129    61    58    1
   130   132   133    2
   131    53    54    2
   132    74    73    2
   133    58    57    1
   134    58    59    1
   135    59    60    2
