@<TRIPOS>MOLECULE
tmp/1rzoB00.pdb
 83 79 0 0 0
SMALL
GASTEIGER

@<TRIPOS>ATOM
      1  N          5.8940   64.1060   27.6960 N.3    22  ASP22      -0.1225
      2  CA         6.5400   65.1920   28.4270 C.3    22  ASP22       0.1805
      3  C          6.9690   64.8370   29.8640 C.2    22  ASP22       0.2598
      4  O          6.2850   64.0900   30.5700 O.2    22  ASP22      -0.2718
      5  CB         5.5340   66.3700   28.3940 C.3    22  ASP22       0.1424
      6  CG         5.8680   67.5110   29.3450 C.2    22  ASP22       0.3668
      7  OD1        5.1670   68.5390   29.2560 O.co2  22  ASP22      -0.2456
      8  OD2        6.7900   67.4120   30.1790 O.co2  22  ASP22      -0.2456
      9  N          8.1240   65.3640   30.2720 N.am   23  VAL23      -0.1966
     10  CA         8.6480   65.1660   31.6240 C.3    23  VAL23       0.1727
     11  C          8.1060   66.3380   32.4490 C.2    23  VAL23       0.2617
     12  O          8.5460   67.4750   32.3040 O.2    23  VAL23      -0.2715
     13  CB        10.1980   65.1810   31.6530 C.3    23  VAL23       0.0290
     14  CG1       10.6860   64.9140   33.0720 C.3    23  VAL23       0.0023
     15  CG2       10.7600   64.1230   30.6840 C.3    23  VAL23       0.0023
     16  N          7.1440   66.0410   33.3140 N.am   24  THR24      -0.1937
     17  CA         6.4730   67.0540   34.1100 C.3    24  THR24       0.2028
     18  C          7.3120   68.1180   34.7870 C.2    24  THR24       0.2643
     19  O          8.2950   67.8160   35.4680 O.2    24  THR24      -0.2714
     20  CB         5.5850   66.4120   35.1610 C.3    24  THR24       0.1808
     21  OG1        4.8750   65.3140   34.5750 O.3    24  THR24      -0.2208
     22  CG2        4.5710   67.4320   35.6620 C.3    24  THR24       0.0379
     23  N          6.8860   69.3680   34.5900 N.am   25  GLY25      -0.1939
     24  CA         7.5580   70.5210   35.1630 C.3    25  GLY25       0.2014
     25  C          9.0600   70.5330   34.9590 C.2    25  GLY25       0.2638
     26  O          9.8010   71.1050   35.7560 O.2    25  GLY25      -0.2714
     27  N          9.5120   69.8930   33.8910 N.am   26  GLU26      -0.1977
     28  CA        10.9320   69.8300   33.5820 C.3    26  GLU26       0.1602
     29  C         11.8430   69.3800   34.7200 C.2    26  GLU26       0.2287
     30  O         13.0560   69.5730   34.6500 O.2    26  GLU26      -0.2864
     31  CB        11.4060   71.1770   33.0480 C.3    26  GLU26       0.0415
     32  CG        11.0140   71.4030   31.6090 C.3    26  GLU26       0.1163
     33  CD        10.6700   72.8390   31.3190 C.2    26  GLU26       0.3649
     34  OE1        9.7940   73.3900   32.0200 O.co2  26  GLU26      -0.2457
     35  OE2       11.2680   73.4150   30.3890 O.co2  26  GLU26      -0.2457
     36  N          4.2460   62.6560   31.5710 N.3    35  GLN35      -0.1245
     37  CA         2.8490   62.9590   31.2950 C.3    35  GLN35       0.1566
     38  C          2.6080   63.1810   29.8110 C.2    35  GLN35       0.2260
     39  O          3.4520   62.8700   28.9790 O.2    35  GLN35      -0.2867
     40  CB         2.4730   64.2360   32.0360 C.3    35  GLN35       0.0367
     41  CG         3.1430   65.4860   31.4260 C.3    35  GLN35       0.0905
     42  CD         3.0670   66.7340   32.3020 C.2    35  GLN35       0.2608
     43  OE1        2.1130   66.9410   33.0510 O.2    35  GLN35      -0.2717
     44  NE2        4.0730   67.5830   32.1890 N.am   35  GLN35      -0.0878
     45  N          1.6970   66.2390   27.3470 N.3    37  TRP37      -0.1241
     46  CA         1.6440   67.6850   27.3420 C.3    37  TRP37       0.1605
     47  C          1.6060   68.1540   25.8970 C.2    37  TRP37       0.2264
     48  O          2.3060   67.5900   25.0500 O.2    37  TRP37      -0.2867
     49  CB         2.8720   68.2440   28.0720 C.3    37  TRP37       0.0550
     50  CG         2.6620   69.6260   28.6150 C.ar   37  TRP37       0.0003
     51  CD1        3.1350   70.7890   28.0940 C.ar   37  TRP37       0.0946
     52  CD2        1.8170   69.9930   29.7130 C.ar   37  TRP37       0.0152
     53  NE1        2.6280   71.8600   28.7860 N.ar   37  TRP37      -0.2442
     54  CE2        1.8140   71.4000   29.7850 C.ar   37  TRP37       0.0810
     55  CE3        1.0550   69.2670   30.6400 C.ar   37  TRP37       0.0012
     56  CZ2        1.0780   72.1020   30.7480 C.ar   37  TRP37       0.0191
     57  CZ3        0.3210   69.9670   31.6010 C.ar   37  TRP37       0.0001
     58  CH2        0.3380   71.3700   31.6440 C.ar   37  TRP37       0.0015
     59  N          5.6060   70.7870   22.1310 N.3    40  LYS40      -0.1245
     60  CA         6.4330   71.9960   22.0650 C.3    40  LYS40       0.1561
     61  C          7.0110   72.1740   20.6670 C.2    40  LYS40       0.2260
     62  O          7.2210   71.2000   19.9500 O.2    40  LYS40      -0.2867
     63  CB         7.6160   71.8920   23.0380 C.3    40  LYS40       0.0271
     64  CG         7.3180   72.0750   24.5230 C.3    40  LYS40       0.0035
     65  CD         8.4840   71.5020   25.3420 C.3    40  LYS40       0.0206
     66  CE         8.6560   72.1640   26.7120 C.3    40  LYS40       0.1093
     67  NZ         7.4350   72.1470   27.5430 N.3    40  LYS40      -0.1314
     68  N         13.0920   72.4450   24.1010 N.3    44  ASP44      -0.1239
     69  CA        13.1430   71.9940   25.4940 C.3    44  ASP44       0.1674
     70  C         13.3560   70.4930   25.5580 C.2    44  ASP44       0.2266
     71  O         12.6640   69.7320   24.8820 O.2    44  ASP44      -0.2867
     72  CB        11.8530   72.3710   26.2130 C.3    44  ASP44       0.1410
     73  CG        11.6040   73.8600   26.1980 C.2    44  ASP44       0.3668
     74  OD1       10.5520   74.3090   26.7000 O.co2  44  ASP44      -0.2456
     75  OD2       12.4740   74.5870   25.6780 O.co2  44  ASP44      -0.2456
     76  N         12.6900   68.2800   27.9260 N.3    46  ASN46      -0.1240
     77  CA        11.6900   67.4530   28.5860 C.3    46  ASN46       0.1653
     78  C         10.6960   66.8410   27.5920 C.2    46  ASN46       0.2266
     79  O          9.8650   66.0200   27.9760 O.2    46  ASN46      -0.2867
     80  CB        10.9500   68.2660   29.6440 C.3    46  ASN46       0.1155
     81  CG         9.9950   69.2660   29.0430 C.2    46  ASN46       0.2627
     82  OD1       10.2680   69.8450   27.9940 O.2    46  ASN46      -0.2716
     83  ND2        8.8720   69.4930   29.7170 N.am   46  ASN46      -0.0877
@<TRIPOS>BOND
     1    62    61    2
     2    61    60    1
     3    60    59    1
     4    60    63    1
     5    63    64    1
     6    68    69    1
     7    64    65    1
     8    71    70    2
     9    48    47    2
    10    65    66    1
    11    69    70    1
    12    69    72    1
    13    75    73   ar
    14    47    46    1
    15    73    72    1
    16    73    74   ar
    17    66    67    1
    18    46    45    1
    19    46    49    1
    20    78    79    2
    21    78    77    1
    22     1     2    1
    23    76    77    1
    24    82    81    2
    25    49    50    1
    26    51    50   ar
    27    51    53   ar
    28     5     2    1
    29     5     6    1
    30     2     3    1
    31    77    80    1
    32    50    52   ar
    33    53    54   ar
    34    39    38    2
    35    81    80    1
    36    81    83   am
    37     7     6   ar
    38     6     8   ar
    39    52    54   ar
    40    52    55   ar
    41    54    56   ar
    42    38    37    1
    43     3     9   am
    44     3     4    2
    45     9    10    1
    46    35    33   ar
    47    55    57   ar
    48    15    13    1
    49    56    58   ar
    50    37    36    1
    51    37    40    1
    52    33    32    1
    53    33    34   ar
    54    41    40    1
    55    41    42    1
    56    57    58   ar
    57    32    31    1
    58    10    13    1
    59    10    11    1
    60    13    14    1
    61    44    42   am
    62    42    43    2
    63    12    11    2
    64    11    16   am
    65    31    28    1
    66    16    17    1
    67    28    27    1
    68    28    29    1
    69    27    25   am
    70    17    18    1
    71    17    20    1
    72    21    20    1
    73    23    18   am
    74    23    24    1
    75    30    29    2
    76    18    19    2
    77    25    24    1
    78    25    26    2
    79    20    22    1
