@<TRIPOS>MOLECULE
tmp/1rzpC00.pdb
 106 107 0 0 0
SMALL
GASTEIGER

@<TRIPOS>ATOM
      1  N         24.6790   31.4000   26.4200 N.3    21  PHE21      -0.1227
      2  CA        24.2690   30.1310   25.8320 C.3    21  PHE21       0.1736
      3  C         23.8120   29.1400   26.8970 C.2    21  PHE21       0.2595
      4  O         24.1100   29.3070   28.0840 O.2    21  PHE21      -0.2718
      5  CB        25.4210   29.5750   24.9980 C.3    21  PHE21       0.0547
      6  CG        25.8890   30.5340   23.9410 C.ar   21  PHE21      -0.0202
      7  CD1       25.1490   30.7160   22.7770 C.ar   21  PHE21      -0.0042
      8  CD2       27.0220   31.3160   24.1460 C.ar   21  PHE21      -0.0042
      9  CE1       25.5250   31.6660   21.8310 C.ar   21  PHE21      -0.0003
     10  CE2       27.4080   32.2720   23.2050 C.ar   21  PHE21      -0.0003
     11  CZ        26.6550   32.4470   22.0460 C.ar   21  PHE21      -0.0000
     12  N         23.0810   28.1160   26.4630 N.am   22  VAL22      -0.1980
     13  CA        22.5270   27.1120   27.3680 C.3    22  VAL22       0.1595
     14  C         22.8550   25.6980   26.8980 C.2    22  VAL22       0.2287
     15  O         22.7810   25.4060   25.7050 O.2    22  VAL22      -0.2864
     16  CB        20.9860   27.2790   27.4590 C.3    22  VAL22       0.0276
     17  CG1       20.3900   26.2780   28.4480 C.3    22  VAL22       0.0022
     18  CG2       20.6500   28.7100   27.8680 C.3    22  VAL22       0.0022
     19  N         22.7070   21.6500   26.1010 N.3    24  ALA24      -0.1231
     20  CA        21.7010   20.8640   25.3980 C.3    24  ALA24       0.1694
     21  C         20.6160   20.3310   26.3290 C.2    24  ALA24       0.2592
     22  O         20.8960   19.8880   27.4430 O.2    24  ALA24      -0.2718
     23  CB        22.3720   19.7060   24.6630 C.3    24  ALA24       0.0304
     24  N         19.3750   20.3770   25.8590 N.am   25  HIS25      -0.1962
     25  CA        18.2350   19.8920   26.6280 C.3    25  HIS25       0.1787
     26  C         17.0180   19.7820   25.7180 C.2    25  HIS25       0.2620
     27  O         17.0340   20.2670   24.5850 O.2    25  HIS25      -0.2715
     28  CB        17.9100   20.8510   27.7820 C.3    25  HIS25       0.0785
     29  CG        17.4380   22.2000   27.3360 C.ar   25  HIS25       0.0821
     30  ND1       18.2990   23.1960   26.9270 N.ar   25  HIS25      -0.2267
     31  CD2       16.1880   22.7180   27.2240 C.ar   25  HIS25       0.1154
     32  CE1       17.6040   24.2680   26.5860 C.ar   25  HIS25       0.1986
     33  NE2       16.3200   24.0020   26.7570 N.ar   25  HIS25      -0.2212
     34  N         15.9700   19.1360   26.2160 N.am   26  ASP26      -0.1957
     35  CA        14.7290   18.9910   25.4660 C.3    26  ASP26       0.1840
     36  C         13.6640   19.7650   26.2330 C.2    26  ASP26       0.2621
     37  O         13.6580   19.7530   27.4630 O.2    26  ASP26      -0.2715
     38  CB        14.3110   17.5190   25.3770 C.3    26  ASP26       0.1450
     39  CG        15.3550   16.6530   24.7000 C.2    26  ASP26       0.3671
     40  OD1       15.7150   16.9380   23.5400 O.co2  26  ASP26      -0.2456
     41  OD2       15.8140   15.6810   25.3290 O.co2  26  ASP26      -0.2456
     42  N         12.7720   20.4480   25.5220 N.am   27  GLN27      -0.1977
     43  CA        11.7160   21.1970   26.1920 C.3    27  GLN27       0.1601
     44  C         10.6990   20.2030   26.7460 C.2    27  GLN27       0.2287
     45  O         10.4100   20.2000   27.9430 O.2    27  GLN27      -0.2864
     46  CB        11.0800   22.1850   25.2150 C.3    27  GLN27       0.0394
     47  CG        12.0300   23.3290   24.8770 C.3    27  GLN27       0.0908
     48  CD        11.5050   24.2550   23.8030 C.2    27  GLN27       0.2608
     49  OE1       10.4380   24.8480   23.9420 O.2    27  GLN27      -0.2717
     50  NE2       12.2660   24.3930   22.7220 N.am   27  GLN27      -0.0878
     51  N          6.6700   26.8270   22.3430 N.3   168  THR168     -0.1203
     52  CA         7.9530   26.2160   22.0350 C.3   168  THR168      0.1994
     53  C          8.9220   27.2450   21.4780 C.2   168  THR168      0.2618
     54  O          8.6160   27.9250   20.4960 O.2   168  THR168     -0.2717
     55  CB         7.7680   25.0930   20.9950 C.3   168  THR168      0.1784
     56  OG1        6.7780   24.1720   21.4680 O.3   168  THR168     -0.2211
     57  CG2        9.0740   24.3550   20.7600 C.3   168  THR168      0.0376
     58  N         10.0890   27.3610   22.1020 N.am  169  TYR169     -0.1961
     59  CA        11.0780   28.3160   21.6320 C.3   169  TYR169      0.1771
     60  C         12.0790   27.6680   20.6820 C.2   169  TYR169      0.2620
     61  O         12.3120   26.4570   20.7360 O.2   169  TYR169     -0.2715
     62  CB        11.8020   28.9720   22.8190 C.3   169  TYR169      0.0574
     63  CG        12.3890   28.0200   23.8490 C.ar  169  TYR169     -0.0198
     64  CD1       13.6270   27.4050   23.6460 C.ar  169  TYR169     -0.0009
     65  CD2       11.7180   27.7660   25.0470 C.ar  169  TYR169     -0.0009
     66  CE1       14.1840   26.5630   24.6190 C.ar  169  TYR169      0.0417
     67  CE2       12.2590   26.9310   26.0200 C.ar  169  TYR169      0.0417
     68  CZ        13.4920   26.3350   25.8030 C.ar  169  TYR169      0.1957
     69  OH        14.0220   25.5200   26.7790 O.3   169  TYR169     -0.2866
     70  N         12.6410   28.4800   19.7910 N.am  170  ASP170     -0.1957
     71  CA        13.6260   28.0060   18.8300 C.3   170  ASP170      0.1840
     72  C         15.0190   28.2470   19.3960 C.2   170  ASP170      0.2622
     73  O         15.9520   27.4930   19.1180 O.2   170  ASP170     -0.2715
     74  CB        13.4610   28.7400   17.4960 C.3   170  ASP170      0.1450
     75  CG        12.0990   28.5020   16.8700 C.2   170  ASP170      0.3671
     76  OD1       11.7700   27.3310   16.5840 O.co2 170  ASP170     -0.2456
     77  OD2       11.3540   29.4850   16.6680 O.co2 170  ASP170     -0.2456
     78  N         15.1470   29.3030   20.1950 N.am  171  LYS171     -0.1963
     79  CA        16.4150   29.6550   20.8310 C.3   171  LYS171      0.1728
     80  C         16.1560   30.0690   22.2730 C.2   171  LYS171      0.2616
     81  O         15.0680   30.5340   22.6090 O.2   171  LYS171     -0.2715
     82  CB        17.0870   30.8410   20.1310 C.3   171  LYS171      0.0311
     83  CG        17.3930   30.6490   18.6600 C.3   171  LYS171      0.0038
     84  CD        18.1650   31.8410   18.0990 C.3   171  LYS171      0.0206
     85  CE        19.5980   31.8830   18.6090 C.3   171  LYS171      0.1093
     86  NZ        20.4030   32.8980   17.8740 N.3   171  LYS171     -0.1314
     87  N         17.1670   29.9040   23.1170 N.am  172  ILE172     -0.1963
     88  CA        17.0670   30.3090   24.5110 C.3   172  ILE172      0.1727
     89  C         18.3810   30.9750   24.8950 C.2   172  ILE172      0.2616
     90  O         19.4590   30.5340   24.4930 O.2   172  ILE172     -0.2715
     91  CB        16.7900   29.1040   25.4540 C.3   172  ILE172      0.0290
     92  CG1       16.7450   29.5850   26.9120 C.3   172  ILE172      0.0022
     93  CG2       17.8560   28.0290   25.2700 C.3   172  ILE172      0.0023
     94  CD1       16.3610   28.5070   27.9130 C.3   172  ILE172      0.0001
     95  N         18.2810   32.0660   25.6400 N.am  173  TYR173     -0.1974
     96  CA        19.4530   32.7920   26.0980 C.3   173  TYR173      0.1639
     97  C         19.2930   33.0350   27.5860 C.2   173  TYR173      0.2290
     98  O         18.1780   33.1890   28.0740 O.2   173  TYR173     -0.2864
     99  CB        19.5710   34.1470   25.3970 C.3   173  TYR173      0.0560
    100  CG        20.0620   34.0950   23.9650 C.ar  173  TYR173     -0.0198
    101  CD1       21.3200   33.5760   23.6540 C.ar  173  TYR173     -0.0009
    102  CD2       19.2890   34.6140   22.9270 C.ar  173  TYR173     -0.0009
    103  CE1       21.7970   33.5830   22.3450 C.ar  173  TYR173      0.0417
    104  CE2       19.7560   34.6240   21.6130 C.ar  173  TYR173      0.0417
    105  CZ        21.0100   34.1100   21.3320 C.ar  173  TYR173      0.1957
    106  OH        21.4820   34.1420   20.0410 O.3   173  TYR173     -0.2866
@<TRIPOS>BOND
     1    76    75   ar
     2    77    75   ar
     3    75    74    1
     4    74    71    1
     5    86    85    1
     6    84    85    1
     7    84    83    1
     8    83    82    1
     9    71    72    1
    10    71    70    1
    11    73    72    2
    12    72    78   am
    13    70    60   am
    14   106   105    1
    15    82    79    1
    16    78    79    1
    17    54    53    2
    18    60    61    2
    19    60    59    1
    20    57    55    1
    21    79    80    1
    22    55    56    1
    23    55    52    1
    24   105   104   ar
    25   105   103   ar
    26    53    52    1
    27    53    58   am
    28   104   102   ar
    29    59    58    1
    30    59    62    1
    31     9    11   ar
    32     9     7   ar
    33    52    51    1
    34    11    10   ar
    35    80    81    2
    36    80    87   am
    37   103   101   ar
    38    50    48   am
    39     7     6   ar
    40    62    63    1
    41   102   100   ar
    42    87    88    1
    43    10     8   ar
    44    40    39   ar
    45    64    63   ar
    46    64    66   ar
    47   101   100   ar
    48    48    49    2
    49    48    47    1
    50    63    65   ar
    51     6     8   ar
    52     6     5    1
    53   100    99    1
    54    90    89    2
    55    88    89    1
    56    88    91    1
    57    27    26    2
    58    66    68   ar
    59    23    20    1
    60    39    41   ar
    61    39    38    1
    62    47    46    1
    63    89    95   am
    64     5     2    1
    65    65    67   ar
    66    46    43    1
    67    93    91    1
    68    38    35    1
    69    99    96    1
    70    20    19    1
    71    20    21    1
    72    91    92    1
    73    35    34    1
    74    35    36    1
    75    42    43    1
    76    42    36   am
    77    95    96    1
    78    15    14    2
    79    26    34   am
    80    26    25    1
    81    68    67   ar
    82    68    69    1
    83     2     1    1
    84     2     3    1
    85    24    21   am
    86    24    25    1
    87    96    97    1
    88    43    44    1
    89    36    37    2
    90    21    22    2
    91    12     3   am
    92    12    13    1
    93    32    33   ar
    94    32    30   ar
    95    25    28    1
    96    44    45    2
    97    33    31   ar
    98     3     4    2
    99    14    13    1
   100    92    94    1
   101    30    29   ar
   102    31    29   ar
   103    29    28    1
   104    13    16    1
   105    16    18    1
   106    16    17    1
   107    97    98    2
