@<TRIPOS>MOLECULE
tmp/1rzuB00.pdb
 143 135 0 0 0
SMALL
GASTEIGER

@<TRIPOS>ATOM
      1  N          7.8150   41.5000   27.1160 N.3    18  GLY18      -0.1225
      2  CA         8.0160   41.9970   25.7620 C.3    18  GLY18       0.1811
      3  C          9.3940   41.7640   25.1730 C.2    18  GLY18       0.2280
      4  O          9.5640   41.8050   23.9490 O.2    18  GLY18      -0.2866
      5  N         -7.5390   48.7830   25.1530 N.3   297  ILE297     -0.1231
      6  CA        -7.1120   47.4160   25.0670 C.3   297  ILE297      0.1692
      7  C         -5.7570   47.3490   25.8090 C.2   297  ILE297      0.2593
      8  O         -4.6460   47.5870   25.2510 O.2   297  ILE297     -0.2718
      9  CB        -6.9680   46.9550   23.6370 C.3   297  ILE297      0.0266
     10  CG1       -8.1740   47.3660   22.7850 C.3   297  ILE297      0.0019
     11  CG2       -6.7680   45.4040   23.5560 C.3   297  ILE297      0.0020
     12  CD1       -7.8990   47.1250   21.3550 C.3   297  ILE297      0.0001
     13  N         -5.8610   47.0940   27.0990 N.am  298  SER298     -0.1938
     14  CA        -4.6830   47.0780   27.8980 C.3   298  SER298      0.2055
     15  C         -4.6330   46.2080   29.1330 C.2   298  SER298      0.2642
     16  O         -5.6460   45.8460   29.6990 O.2   298  SER298     -0.2714
     17  CB        -4.4120   48.5290   28.1790 C.3   298  SER298      0.2130
     18  OG        -3.8530   48.8530   29.4010 O.3   298  SER298     -0.2179
     19  N         -3.4230   45.7940   29.4820 N.am  299  ARG299     -0.1977
     20  CA        -3.1570   45.1780   30.7500 C.3   299  ARG299      0.1597
     21  C         -3.5850   46.2680   31.7220 C.2   299  ARG299      0.2287
     22  O         -3.3740   47.4430   31.4320 O.2   299  ARG299     -0.2864
     23  CB        -1.6700   44.8710   30.8990 C.3   299  ARG299      0.0334
     24  CG        -1.2560   43.6360   30.1780 C.3   299  ARG299      0.0492
     25  CD         0.1960   43.2870   30.3980 C.3   299  ARG299      0.2205
     26  NE         1.1540   44.2850   29.8700 N.pl3 299  ARG299     -0.0865
     27  CZ         1.9320   45.0990   30.6210 C.cat 299  ARG299      0.5346
     28  NH1        1.8570   45.1270   31.9400 N.pl3 299  ARG299      0.1354
     29  NH2        2.7940   45.9140   30.0390 N.pl3 299  ARG299      0.1354
     30  N          0.0740   51.5520   33.0830 N.3   304  LYS304     -0.1245
     31  CA        -0.7280   51.7940   31.9080 C.3   304  LYS304      0.1561
     32  C         -1.7300   52.9090   32.1430 C.2   304  LYS304      0.2260
     33  O         -2.5100   53.2580   31.2690 O.2   304  LYS304     -0.2867
     34  CB        -1.4150   50.5070   31.4380 C.3   304  LYS304      0.0271
     35  CG        -0.4860   49.5160   30.6670 C.3   304  LYS304      0.0035
     36  CD         0.0470   50.1270   29.3720 C.3   304  LYS304      0.0206
     37  CE         0.2580   49.0450   28.3130 C.3   304  LYS304      0.1093
     38  NZ         1.4460   48.9790   27.5850 N.3   304  LYS304     -0.1314
     39  N        -11.2540   46.1530   26.8720 N.3   326  LEU326     -0.1231
     40  CA       -10.7820   44.8120   26.8770 C.3   326  LEU326      0.1693
     41  C         -9.4380   44.7960   27.6560 C.2   326  LEU326      0.2593
     42  O         -8.5170   45.4930   27.3140 O.2   326  LEU326     -0.2718
     43  CB       -10.5630   44.3540   25.4510 C.3   326  LEU326      0.0284
     44  CG        -9.8160   43.0540   25.2890 C.3   326  LEU326      0.0019
     45  CD1      -10.4590   41.9260   26.1290 C.3   326  LEU326      0.0001
     46  CD2       -9.7580   42.6620   23.8350 C.3   326  LEU326      0.0001
     47  N         -9.3490   43.9970   28.6920 N.am  327  GLY327     -0.1942
     48  CA        -8.1400   43.9210   29.4760 C.3   327  GLY327      0.2014
     49  C         -8.2910   42.9820   30.6590 C.2   327  GLY327      0.2638
     50  O         -9.3630   42.4580   30.9120 O.2   327  GLY327     -0.2714
     51  N         -7.1670   42.8030   31.3470 N.am  328  ALA328     -0.1977
     52  CA        -7.0270   42.0490   32.5590 C.3   328  ALA328      0.1597
     53  C         -5.8240   42.5750   33.3390 C.2   328  ALA328      0.2287
     54  O         -4.8260   43.0210   32.7730 O.2   328  ALA328     -0.2864
     55  CB        -6.8410   40.5620   32.2680 C.3   328  ALA328      0.0319
     56  N        -10.3490   39.9600   30.5370 N.3   353  GLY353     -0.1210
     57  CA        -9.7240   38.7820   29.9800 C.3   353  GLY353      0.1956
     58  C         -8.8950   39.0680   28.7520 C.2   353  GLY353      0.2612
     59  O         -8.8420   40.1990   28.2860 O.2   353  GLY353     -0.2717
     60  N         -8.2040   38.0380   28.2620 N.am  354  TYR354     -0.1962
     61  CA        -7.3350   38.1400   27.0900 C.3   354  TYR354      0.1771
     62  C         -8.0590   37.6260   25.8520 C.2   354  TYR354      0.2620
     63  O         -8.4510   36.4930   25.7820 O.2   354  TYR354     -0.2715
     64  CB        -6.0100   37.4060   27.2920 C.3   354  TYR354      0.0574
     65  CG        -4.9690   37.8110   26.2400 C.ar  354  TYR354     -0.0198
     66  CD1       -4.1830   38.9350   26.3980 C.ar  354  TYR354     -0.0009
     67  CD2       -4.8150   37.0770   25.0680 C.ar  354  TYR354     -0.0009
     68  CE1       -3.2600   39.3140   25.4160 C.ar  354  TYR354      0.0417
     69  CE2       -3.8970   37.4420   24.0890 C.ar  354  TYR354      0.0417
     70  CZ        -3.1210   38.5360   24.2680 C.ar  354  TYR354      0.1957
     71  OH        -2.2310   38.8570   23.2820 O.3   354  TYR354     -0.2866
     72  N         -8.2290   38.4730   24.8590 N.am  355  ASN355     -0.1958
     73  CA        -8.9220   38.0570   23.6680 C.3   355  ASN355      0.1819
     74  C         -8.3340   38.6630   22.3980 C.2   355  ASN355      0.2621
     75  O         -8.8580   39.5870   21.8240 O.2   355  ASN355     -0.2715
     76  CB       -10.4110   38.4060   23.7730 C.3   355  ASN355      0.1195
     77  CG       -11.2130   37.7310   22.7040 C.2   355  ASN355      0.2630
     78  OD1      -10.7140   37.5090   21.5780 O.2   355  ASN355     -0.2716
     79  ND2      -12.4480   37.3730   23.0280 N.am  355  ASN355     -0.0877
     80  N         -7.2350   38.1160   21.9540 N.am  356  GLU356     -0.1977
     81  CA        -6.6060   38.6060   20.7710 C.3   356  GLU356      0.1602
     82  C         -7.6060   38.8770   19.5980 C.2   356  GLU356      0.2287
     83  O         -7.6350   39.9800   19.0680 O.2   356  GLU356     -0.2864
     84  CB        -5.4270   37.6990   20.3900 C.3   356  GLU356      0.0415
     85  CG        -5.1120   37.8250   18.9260 C.3   356  GLU356      0.1163
     86  CD        -3.6640   37.9140   18.6380 C.2   356  GLU356      0.3649
     87  OE1       -2.8670   37.0650   19.1510 O.co2 356  GLU356     -0.2457
     88  OE2       -3.3430   38.8380   17.8530 O.co2 356  GLU356     -0.2457
     89  N         -9.5130   41.9250   20.0520 N.3   359  SER359     -0.1217
     90  CA        -8.7560   43.1540   19.9720 C.3   359  SER359      0.1889
     91  C         -8.6730   43.5420   18.4920 C.2   359  SER359      0.2288
     92  O         -8.6600   44.7130   18.1690 O.2   359  SER359     -0.2866
     93  CB        -7.3780   43.0710   20.6420 C.3   359  SER359      0.2089
     94  OG        -6.4890   42.2410   19.9230 O.3   359  SER359     -0.2183
     95  N         -9.9480   47.3540   17.1960 N.3   363  GLN363     -0.1245
     96  CA        -9.1070   48.2760   16.4160 C.3   363  GLN363      0.1566
     97  C         -9.7480   48.6010   15.0760 C.2   363  GLN363      0.2260
     98  O         -9.5190   49.6490   14.5280 O.2   363  GLN363     -0.2867
     99  CB        -7.7140   47.6980   16.2070 C.3   363  GLN363      0.0367
    100  CG        -6.9330   47.5390   17.5450 C.3   363  GLN363      0.0905
    101  CD        -6.2160   48.7830   17.9390 C.2   363  GLN363      0.2608
    102  OE1       -6.5810   49.8610   17.4530 O.2   363  GLN363     -0.2717
    103  NE2       -5.1630   48.6650   18.7990 N.am  363  GLN363     -0.0878
    104  N          6.1530   53.9500   29.1640 N.3   376  GLU376     -0.1245
    105  CA         5.9910   53.1140   27.9720 C.3   376  GLU376      0.1567
    106  C          7.2400   53.1350   27.0810 C.2   376  GLU376      0.2260
    107  O          7.4050   54.0080   26.2390 O.2   376  GLU376     -0.2867
    108  CB         4.7650   53.5820   27.1670 C.3   376  GLU376      0.0388
    109  CG         4.2050   52.5460   26.2320 C.3   376  GLU376      0.1160
    110  CD         3.6220   51.3060   26.9410 C.2   376  GLU376      0.3649
    111  OE1        4.1960   50.2010   26.7950 O.co2 376  GLU376     -0.2457
    112  OE2        2.6140   51.4150   27.6510 O.co2 376  GLU376     -0.2457
    113  N          5.5690   50.4920   23.1480 N.3   379  GLY379     -0.1210
    114  CA         4.1350   50.3140   23.0410 C.3   379  GLY379      0.1956
    115  C          3.8030   49.7920   21.6750 C.2   379  GLY379      0.2612
    116  O          4.4770   50.1040   20.7100 O.2   379  GLY379     -0.2717
    117  N          2.8290   48.9130   21.6000 N.am  380  LEU380     -0.1965
    118  CA         2.3590   48.4040   20.3350 C.3   380  LEU380      0.1728
    119  C          0.9280   48.7800   19.9960 C.2   380  LEU380      0.2616
    120  O          0.5900   48.7660   18.8440 O.2   380  LEU380     -0.2715
    121  CB         2.4460   46.8780   20.3080 C.3   380  LEU380      0.0311
    122  CG         3.8400   46.3530   20.6110 C.3   380  LEU380      0.0022
    123  CD1        3.7210   44.9000   20.7620 C.3   380  LEU380      0.0001
    124  CD2        4.7730   46.7140   19.4870 C.3   380  LEU380      0.0001
    125  N          0.1100   49.0970   20.9710 N.am  381  THR381     -0.1951
    126  CA        -1.3070   49.3580   20.7500 C.3   381  THR381      0.1897
    127  C         -1.5610   50.4650   19.7650 C.2   381  THR381      0.2313
    128  O         -2.5110   50.4080   18.9770 O.2   381  THR381     -0.2863
    129  CB        -1.9340   49.8020   22.0680 C.3   381  THR381      0.1794
    130  OG1       -1.6030   48.8630   23.0450 O.3   381  THR381     -0.2208
    131  CG2       -3.4660   49.8050   22.0120 C.3   381  THR381      0.0378
    132  N         -0.9510   49.3870   16.2170 N.3   384  TYR384     -0.1241
    133  CA        -2.0640   48.6420   15.6350 C.3   384  TYR384      0.1605
    134  C         -3.1360   49.6280   15.2510 C.2   384  TYR384      0.2264
    135  O         -3.7800   49.4890   14.2360 O.2   384  TYR384     -0.2867
    136  CB        -2.6260   47.5650   16.5700 C.3   384  TYR384      0.0534
    137  CG        -1.6490   46.4390   16.9180 C.ar  384  TYR384     -0.0201
    138  CD1       -1.0780   45.6660   15.9110 C.ar  384  TYR384     -0.0009
    139  CD2       -1.2610   46.1870   18.2310 C.ar  384  TYR384     -0.0009
    140  CE1       -0.1900   44.6600   16.1900 C.ar  384  TYR384      0.0417
    141  CE2       -0.3280   45.1780   18.5210 C.ar  384  TYR384      0.0417
    142  CZ         0.1980   44.4400   17.4920 C.ar  384  TYR384      0.1957
    143  OH         1.1080   43.4200   17.7240 O.3   384  TYR384     -0.2866
@<TRIPOS>BOND
     1   135   134    2
     2    98    97    2
     3    97    96    1
     4   134   133    1
     5   133   132    1
     6   133   136    1
     7   138   140   ar
     8   138   137   ar
     9   140   142   ar
    10    99    96    1
    11    99   100    1
    12    96    95    1
    13   136   137    1
    14   137   139   ar
    15   102   101    2
    16   142   143    1
    17   142   141   ar
    18   100   101    1
    19    88    86   ar
    20   101   103   am
    21    92    91    2
    22   139   141   ar
    23    91    90    1
    24    86    85    1
    25    86    87   ar
    26   120   119    2
    27    85    84    1
    28   128   127    2
    29    83    82    2
    30   124   122    1
    31    82    81    1
    32   127   126    1
    33    94    93    1
    34    90    89    1
    35    90    93    1
    36   119   118    1
    37   119   125   am
    38   121   118    1
    39   121   122    1
    40   118   117    1
    41    84    81    1
    42   122   123    1
    43   116   115    2
    44   126   125    1
    45   126   129    1
    46    81    80    1
    47    12    10    1
    48    78    77    2
    49   117   115   am
    50   115   114    1
    51    75    74    2
    52    80    74   am
    53   131   129    1
    54   129   130    1
    55    74    73    1
    56    77    79   am
    57    77    76    1
    58    10     9    1
    59   114   113    1
    60    71    70    1
    61    11     9    1
    62     9     6    1
    63    73    76    1
    64    73    72    1
    65    46    44    1
    66     4     3    2
    67    69    70   ar
    68    69    67   ar
    69    70    68   ar
    70    72    62   am
    71     6     5    1
    72     6     7    1
    73    67    65   ar
    74     3     2    1
    75     8     7    2
    76    44    43    1
    77    44    45    1
    78    68    66   ar
    79    43    40    1
    80     2     1    1
    81    63    62    2
    82     7    13   am
    83    62    61    1
    84   109   110    1
    85   109   108    1
    86   107   106    2
    87    65    66   ar
    88    65    64    1
    89   111   110   ar
    90    39    40    1
    91    40    41    1
    92   110   112   ar
    93   106   105    1
    94    61    64    1
    95    61    60    1
    96    13    14    1
    97   108   105    1
    98    42    41    2
    99    38    37    1
   100    41    47   am
   101    14    17    1
   102    14    15    1
   103   105   104    1
   104    17    18    1
   105    60    58   am
   106    59    58    2
   107    37    36    1
   108    47    48    1
   109    58    57    1
   110    15    19   am
   111    15    16    2
   112    36    35    1
   113    48    49    1
   114    19    20    1
   115    26    25    1
   116    26    27    2
   117    57    56    1
   118    29    27    1
   119    24    25    1
   120    24    23    1
   121    27    28    1
   122    49    50    2
   123    49    51   am
   124    35    34    1
   125    20    23    1
   126    20    21    1
   127    33    32    2
   128    51    52    1
   129    22    21    2
   130    34    31    1
   131    31    32    1
   132    31    30    1
   133    55    52    1
   134    52    53    1
   135    54    53    2
