@<TRIPOS>MOLECULE
tmp/1rzxA00.pdb
 146 141 0 0 0
SMALL
GASTEIGER

@<TRIPOS>ATOM
      1  N         28.9440   28.8190   14.3320 N.3    10  LYS10      -0.1245
      2  CA        27.8570   28.2800   15.1420 C.3    10  LYS10       0.1561
      3  C         28.3610   27.5020   16.3530 C.2    10  LYS10       0.2260
      4  O         29.4510   26.9320   16.3300 O.2    10  LYS10      -0.2867
      5  CB        26.9560   27.3760   14.2940 C.3    10  LYS10       0.0271
      6  CG        25.6350   27.0360   14.9720 C.3    10  LYS10       0.0035
      7  CD        24.7090   26.2310   14.0730 C.3    10  LYS10       0.0206
      8  CE        25.1850   24.7980   13.9030 C.3    10  LYS10       0.1093
      9  NZ        24.1740   23.9770   13.1800 N.3    10  LYS10      -0.1314
     10  N         19.9430   26.1390   14.1920 N.3    16  PRO16      -0.2102
     11  CA        20.2500   26.3050   12.7700 C.3    16  PRO16       0.1504
     12  C         21.1060   27.5420   12.4960 C.2    16  PRO16       0.2576
     13  O         21.2730   28.4000   13.3690 O.2    16  PRO16      -0.2718
     14  CB        18.8690   26.4120   12.1440 C.3    16  PRO16       0.0282
     15  CG        18.1280   27.2090   13.1790 C.3    16  PRO16       0.0208
     16  CD        18.5510   26.5350   14.4760 C.3    16  PRO16       0.0893
     17  N         21.6500   27.6190   11.2850 N.am   17  LEU17      -0.1966
     18  CA        22.4760   28.7490   10.8700 C.3    17  LEU17       0.1728
     19  C         21.6450   30.0290   10.9440 C.2    17  LEU17       0.2617
     20  O         22.1850   31.1230   11.1080 O.2    17  LEU17      -0.2715
     21  CB        22.9720   28.5420    9.4390 C.3    17  LEU17       0.0311
     22  CG        23.7970   27.2780    9.1560 C.3    17  LEU17       0.0022
     23  CD1       23.8760   27.0340    7.6550 C.3    17  LEU17       0.0001
     24  CD2       25.1900   27.4210    9.7460 C.3    17  LEU17       0.0001
     25  N         20.3300   29.8870   10.7980 N.am   18  GLY18      -0.1940
     26  CA        19.4610   31.0440   10.8890 C.3    18  GLY18       0.2014
     27  C         18.9400   31.6490    9.6020 C.2    18  GLY18       0.2639
     28  O         18.5490   32.8190    9.5940 O.2    18  GLY18      -0.2714
     29  N         18.9420   30.8940    8.5070 N.am   19  PHE19      -0.1959
     30  CA        18.4200   31.4460    7.2630 C.3    19  PHE19       0.1771
     31  C         17.7710   30.4030    6.3660 C.2    19  PHE19       0.2620
     32  O         17.9590   29.1960    6.5510 O.2    19  PHE19      -0.2715
     33  CB        19.5140   32.2310    6.5140 C.3    19  PHE19       0.0574
     34  CG        20.6740   31.3920    6.0490 C.ar   19  PHE19      -0.0200
     35  CD1       20.7820   31.0230    4.7120 C.ar   19  PHE19      -0.0042
     36  CD2       21.6930   31.0370    6.9270 C.ar   19  PHE19      -0.0042
     37  CE1       21.8980   30.3030    4.2480 C.ar   19  PHE19      -0.0003
     38  CE2       22.8120   30.3180    6.4810 C.ar   19  PHE19      -0.0003
     39  CZ        22.9190   29.9570    5.1340 C.ar   19  PHE19      -0.0000
     40  N         16.9770   30.8760    5.4140 N.am   20  TYR20      -0.1960
     41  CA        16.2700   30.0100    4.4830 C.3    20  TYR20       0.1771
     42  C         16.7900   30.2850    3.0780 C.2    20  TYR20       0.2619
     43  O         17.1670   31.4170    2.7700 O.2    20  TYR20      -0.2715
     44  CB        14.7690   30.3150    4.5170 C.3    20  TYR20       0.0574
     45  CG        14.0690   30.0580    5.8370 C.ar   20  TYR20      -0.0198
     46  CD1       13.2660   28.9320    6.0140 C.ar   20  TYR20      -0.0009
     47  CD2       14.1520   30.9780    6.8820 C.ar   20  TYR20      -0.0009
     48  CE1       12.5490   28.7360    7.1920 C.ar   20  TYR20       0.0417
     49  CE2       13.4380   30.7880    8.0760 C.ar   20  TYR20       0.0417
     50  CZ        12.6390   29.6660    8.2190 C.ar   20  TYR20       0.1957
     51  OH        11.9150   29.4770    9.3780 O.3    20  TYR20      -0.2866
     52  N         16.8210   29.2590    2.2310 N.am   21  ILE21      -0.1963
     53  CA        17.2590   29.4520    0.8580 C.3    21  ILE21       0.1727
     54  C         16.1610   29.0130   -0.0910 C.2    21  ILE21       0.2616
     55  O         15.3310   28.1900    0.2600 O.2    21  ILE21      -0.2715
     56  CB        18.5540   28.6550    0.5450 C.3    21  ILE21       0.0290
     57  CG1       18.3640   27.1900    0.9410 C.3    21  ILE21       0.0022
     58  CG2       19.7440   29.2830    1.2630 C.3    21  ILE21       0.0023
     59  CD1       19.5490   26.2890    0.6040 C.3    21  ILE21       0.0001
     60  N         16.1720   29.5670   -1.2960 N.am   22  ARG22      -0.1963
     61  CA        15.1830   29.2290   -2.3100 C.3    22  ARG22       0.1729
     62  C         15.8560   29.2030   -3.6760 C.2    22  ARG22       0.2616
     63  O         16.9960   29.6140   -3.8150 O.2    22  ARG22      -0.2715
     64  CB        14.0660   30.2820   -2.3430 C.3    22  ARG22       0.0348
     65  CG        14.5720   31.6470   -2.8280 C.3    22  ARG22       0.0492
     66  CD        13.4520   32.6900   -2.9230 C.3    22  ARG22       0.2205
     67  NE        13.9730   34.0120   -3.2780 N.pl3  22  ARG22      -0.0865
     68  CZ        14.4230   34.3480   -4.4820 C.cat  22  ARG22       0.5346
     69  NH1       14.4190   33.4630   -5.4680 N.pl3  22  ARG22       0.1354
     70  NH2       14.8770   35.5740   -4.7050 N.pl3  22  ARG22       0.1354
     71  N         15.1190   28.7310   -4.6740 N.am   23  ASP23      -0.1971
     72  CA        15.5950   28.6880   -6.0450 C.3    23  ASP23       0.1709
     73  C         15.3140   30.0710   -6.6040 C.2    23  ASP23       0.2293
     74  O         14.3560   30.7280   -6.1980 O.2    23  ASP23      -0.2864
     75  CB        14.8160   27.6420   -6.8440 C.3    23  ASP23       0.1436
     76  CG        15.3860   26.2460   -6.6980 C.2    23  ASP23       0.3671
     77  OD1       14.6170   25.2780   -6.8550 O.co2  23  ASP23      -0.2456
     78  OD2       16.6060   26.1100   -6.4600 O.co2  23  ASP23      -0.2456
     79  N         16.0720   33.5630    1.0360 N.3    43  SER43      -0.1202
     80  CA        14.7000   34.0530    1.0210 C.3    43  SER43       0.2020
     81  C         14.4020   34.8580    2.2760 C.2    43  SER43       0.2618
     82  O         13.7670   35.9050    2.2010 O.2    43  SER43      -0.2717
     83  CB        13.7190   32.8810    0.9060 C.3    43  SER43       0.2103
     84  OG        13.8660   32.0100    2.0080 O.3    43  SER43      -0.2182
     85  N         14.8650   34.3690    3.4250 N.am   44  ARG44      -0.1979
     86  CA        14.6480   35.0800    4.6800 C.3    44  ARG44       0.1597
     87  C         15.5300   34.6280    5.8390 C.2    44  ARG44       0.2287
     88  O         16.1460   33.5550    5.8040 O.2    44  ARG44      -0.2864
     89  CB        13.1850   34.9990    5.1080 C.3    44  ARG44       0.0334
     90  CG        12.6640   33.6100    5.3050 C.3    44  ARG44       0.0492
     91  CD        11.4010   33.6190    6.1420 C.3    44  ARG44       0.2205
     92  NE        10.6890   32.3550    6.0000 N.pl3  44  ARG44      -0.0865
     93  CZ         9.9230   31.8170    6.9400 C.cat  44  ARG44       0.5346
     94  NH1        9.7710   32.4370    8.1020 N.pl3  44  ARG44       0.1354
     95  NH2        9.3140   30.6590    6.7170 N.pl3  44  ARG44       0.1354
     96  N         15.9960   33.9880   10.1010 N.3    46  VAL46      -0.1245
     97  CA        15.2710   33.6180   11.3020 C.3    46  VAL46       0.1561
     98  C         15.4710   34.7310   12.3290 C.2    46  VAL46       0.2260
     99  O         16.6040   35.1000   12.6350 O.2    46  VAL46      -0.2867
    100  CB        15.7970   32.2860   11.8940 C.3    46  VAL46       0.0252
    101  CG1       15.0950   31.9840   13.2230 C.3    46  VAL46       0.0019
    102  CG2       15.5560   31.1490   10.9120 C.3    46  VAL46       0.0019
    103  N         18.0450   22.6630   -4.8680 N.3    76  LEU76      -0.1231
    104  CA        17.8630   23.2710   -3.5570 C.3    76  LEU76       0.1693
    105  C         18.1690   22.2240   -2.4870 C.2    76  LEU76       0.2592
    106  O         18.7990   22.5220   -1.4740 O.2    76  LEU76      -0.2718
    107  CB        16.4210   23.7610   -3.3980 C.3    76  LEU76       0.0284
    108  CG        16.1410   24.6620   -2.1900 C.3    76  LEU76       0.0019
    109  CD1       16.9820   25.9290   -2.3130 C.3    76  LEU76       0.0001
    110  CD2       14.6500   25.0210   -2.1290 C.3    76  LEU76       0.0001
    111  N         17.7040   21.0000   -2.7100 N.am   77  ASP77      -0.1974
    112  CA        17.9390   19.9030   -1.7720 C.3    77  ASP77       0.1709
    113  C         19.4370   19.6060   -1.5890 C.2    77  ASP77       0.2293
    114  O         19.9030   19.3850   -0.4710 O.2    77  ASP77      -0.2864
    115  CB        17.2190   18.6260   -2.2480 C.3    77  ASP77       0.1436
    116  CG        15.7270   18.6160   -1.9040 C.2    77  ASP77       0.3671
    117  OD1       15.0780   19.6810   -1.9530 O.co2  77  ASP77      -0.2456
    118  OD2       15.1860   17.5320   -1.5980 O.co2  77  ASP77      -0.2456
    119  N         21.1580   22.5020    0.3100 N.3    80  THR80      -0.1218
    120  CA        20.7600   22.4770    1.7130 C.3    80  THR80       0.1862
    121  C         21.6450   21.4610    2.4490 C.2    80  THR80       0.2287
    122  O         22.1700   21.7510    3.5300 O.2    80  THR80      -0.2866
    123  CB        19.2760   22.1030    1.8560 C.3    80  THR80       0.1770
    124  OG1       18.4810   23.1260    1.2440 O.3    80  THR80      -0.2211
    125  CG2       18.8840   21.9700    3.3300 C.3    80  THR80       0.0375
    126  N         25.2360   22.6750    3.1750 N.3    83  MET83      -0.1230
    127  CA        25.3560   23.6190    4.2740 C.3    83  MET83       0.1702
    128  C         25.2460   23.0340    5.6720 C.2    83  MET83       0.2592
    129  O         26.0240   23.3790    6.5490 O.2    83  MET83      -0.2718
    130  CB        24.3300   24.7350    4.1080 C.3    83  MET83       0.0401
    131  CG        24.8050   25.8270    3.1700 C.3    83  MET83       0.0596
    132  SD        23.5200   26.9680    2.6610 S.3    83  MET83      -0.1393
    133  CE        24.2820   27.7500    1.2620 C.3    83  MET83       0.0692
    134  N         24.2850   22.1470    5.8840 N.am   84  VAL84      -0.1980
    135  CA        24.1050   21.5470    7.1990 C.3    84  VAL84       0.1595
    136  C         25.3190   20.6970    7.5810 C.2    84  VAL84       0.2287
    137  O         25.5780   20.4610    8.7600 O.2    84  VAL84      -0.2864
    138  CB        22.8270   20.6890    7.2310 C.3    84  VAL84       0.0276
    139  CG1       21.6200   21.5620    6.8710 C.3    84  VAL84       0.0022
    140  CG2       22.9460   19.5380    6.2600 C.3    84  VAL84       0.0022
    141  N         27.8710   23.0820    9.2070 N.3    87  SER87      -0.1217
    142  CA        27.2630   23.9320   10.2250 C.3    87  SER87       0.1889
    143  C         28.2670   24.4290   11.2630 C.2    87  SER87       0.2288
    144  O         28.2790   25.6150   11.6030 O.2    87  SER87      -0.2866
    145  CB        26.1350   23.1770   10.9280 C.3    87  SER87       0.2089
    146  OG        25.1130   22.8380   10.0100 O.3    87  SER87      -0.2183
@<TRIPOS>BOND
     1    77    76   ar
     2    75    76    1
     3    75    72    1
     4    76    78   ar
     5    73    74    2
     6    73    72    1
     7    72    71    1
     8    69    68    1
     9   103   104    1
    10    70    68    1
    11    71    62   am
    12    68    67    2
    13    63    62    2
    14    62    61    1
    15   104   107    1
    16   104   105    1
    17   107   108    1
    18    67    66    1
    19    66    65    1
    20    65    64    1
    21   111   105   am
    22   111   112    1
    23   105   106    2
    24    64    61    1
    25   109   108    1
    26    61    60    1
    27   115   116    1
    28   115   112    1
    29   108   110    1
    30   117   116   ar
    31   116   118   ar
    32   112   113    1
    33   113   114    2
    34    60    54   am
    35    54    55    2
    36    54    53    1
    37   119   120    1
    38    56    53    1
    39    56    57    1
    40    56    58    1
    41    59    57    1
    42    53    52    1
    43    83    80    1
    44    83    84    1
    45    80    79    1
    46    80    81    1
    47   124   123    1
    48   133   132    1
    49   120   123    1
    50   120   121    1
    51   123   125    1
    52    82    81    2
    53    52    42   am
    54    81    85   am
    55   121   122    2
    56   132   131    1
    57    43    42    2
    58    42    41    1
    59   131   130    1
    60   126   127    1
    61    85    86    1
    62   130   127    1
    63    37    35   ar
    64    37    39   ar
    65   127   128    1
    66    41    44    1
    67    41    40    1
    68    44    45    1
    69    86    89    1
    70    86    87    1
    71    35    34   ar
    72    89    90    1
    73    39    38   ar
    74    90    91    1
    75    40    31   am
    76   128   134   am
    77   128   129    2
    78    88    87    2
    79    45    46   ar
    80    45    47   ar
    81   134   135    1
    82    92    91    1
    83    92    93    2
    84    46    48   ar
    85    34    33    1
    86    34    36   ar
    87   140   138    1
    88    31    32    2
    89    31    30    1
    90    38    36   ar
    91    33    30    1
    92    95    93    1
    93   139   138    1
    94    47    49   ar
    95    93    94    1
    96    48    50   ar
    97   135   138    1
    98   135   136    1
    99    30    29    1
   100   136   137    2
   101    23    22    1
   102    49    50   ar
   103    50    51    1
   104    29    27   am
   105    22    21    1
   106    22    24    1
   107   141   142    1
   108    21    18    1
   109    28    27    2
   110    27    26    1
   111   146   145    1
   112    96    97    1
   113   142   145    1
   114   142   143    1
   115    25    26    1
   116    25    19   am
   117    18    19    1
   118    18    17    1
   119   102   100    1
   120    19    20    2
   121   143   144    2
   122    17    12   am
   123    97   100    1
   124    97    98    1
   125   100   101    1
   126    14    11    1
   127    14    15    1
   128    98    99    2
   129    12    11    1
   130    12    13    2
   131    11    10    1
   132    15    16    1
   133     9     8    1
   134     8     7    1
   135     7     6    1
   136    10    16    1
   137     5     6    1
   138     5     2    1
   139     1     2    1
   140     2     3    1
   141     4     3    2
