@<TRIPOS>MOLECULE
tmp/1rzyA00.pdb
 162 159 0 0 0
SMALL
GASTEIGER

@<TRIPOS>ATOM
      1  N         15.6400   10.3290   50.8780 N.3     6  ILE6       -0.1231
      2  CA        14.3820   10.9900   50.5420 C.3     6  ILE6        0.1692
      3  C         14.4370   12.4460   51.0110 C.2     6  ILE6        0.2592
      4  O         14.0140   13.3560   50.3070 O.2     6  ILE6       -0.2718
      5  CB        13.1720   10.3220   51.2550 C.3     6  ILE6        0.0266
      6  CG1       12.8720    8.9620   50.6250 C.3     6  ILE6        0.0019
      7  CG2       11.9560   11.2510   51.2040 C.3     6  ILE6        0.0020
      8  CD1       11.8260    8.1560   51.3890 C.3     6  ILE6        0.0001
      9  N         14.9600   12.6520   52.2150 N.am    7  PHE7       -0.1976
     10  CA        15.0350   13.9910   52.7860 C.3     7  PHE7        0.1639
     11  C         16.0330   14.8860   52.0770 C.2     7  PHE7        0.2290
     12  O         15.9220   16.1070   52.1280 O.2     7  PHE7       -0.2864
     13  CB        15.3560   13.9040   54.2800 C.3     7  PHE7        0.0560
     14  CG        14.2880   13.2040   55.0870 C.ar    7  PHE7       -0.0200
     15  CD1       13.0270   12.9750   54.5410 C.ar    7  PHE7       -0.0042
     16  CD2       14.5360   12.7880   56.3860 C.ar    7  PHE7       -0.0042
     17  CE1       12.0280   12.3480   55.2770 C.ar    7  PHE7       -0.0003
     18  CE2       13.5400   12.1550   57.1390 C.ar    7  PHE7       -0.0003
     19  CZ        12.2850   11.9360   56.5780 C.ar    7  PHE7       -0.0000
     20  N         14.1180   16.4730   49.3870 N.3    10  ILE10      -0.1245
     21  CA        13.2020   17.4660   49.9290 C.3    10  ILE10       0.1561
     22  C         13.9570   18.7580   50.2160 C.2    10  ILE10       0.2260
     23  O         13.4670   19.8480   49.9190 O.2    10  ILE10      -0.2867
     24  CB        12.5080   16.9580   51.2170 C.3    10  ILE10       0.0252
     25  CG1       11.5500   15.8210   50.8540 C.3    10  ILE10       0.0019
     26  CG2       11.7650   18.1040   51.9060 C.3    10  ILE10       0.0019
     27  CD1       10.7310   15.2660   52.0150 C.3    10  ILE10       0.0001
     28  N         11.8210   17.5440   45.2000 N.3    15  ILE15      -0.1231
     29  CA        10.4700   17.0300   45.3740 C.3    15  ILE15       0.1678
     30  C          9.8770   17.8520   46.5150 C.2    15  ILE15       0.2434
     31  O         10.4800   17.9690   47.5850 O.2    15  ILE15      -0.2733
     32  CB        10.4500   15.5200   45.7170 C.3    15  ILE15       0.0265
     33  CG1       11.0610   15.2640   47.0930 C.3    15  ILE15       0.0019
     34  CG2       11.2020   14.7430   44.6420 C.3    15  ILE15       0.0020
     35  CD1       10.8160   13.8600   47.6010 C.3    15  ILE15       0.0001
     36  N          8.6990   18.4600   46.2940 N.am   16  PRO16      -0.2718
     37  CA         8.0590   19.2800   47.3240 C.3    16  PRO16       0.1535
     38  C          7.5390   18.5370   48.5400 C.2    16  PRO16       0.2598
     39  O          7.3200   17.3300   48.5070 O.2    16  PRO16      -0.2715
     40  CB         6.9340   19.9770   46.5610 C.3    16  PRO16       0.0310
     41  CG         6.5470   18.9540   45.5480 C.3    16  PRO16       0.0237
     42  CD         7.8900   18.4540   45.0600 C.3    16  PRO16       0.0939
     43  N          7.3470   19.2930   49.6130 N.am   17  ALA17      -0.1978
     44  CA         6.8170   18.7830   50.8650 C.3    17  ALA17       0.1597
     45  C          5.9840   19.9120   51.4320 C.2    17  ALA17       0.2287
     46  O          6.0730   21.0410   50.9620 O.2    17  ALA17      -0.2864
     47  CB         7.9590   18.4570   51.8110 C.3    17  ALA17       0.0319
     48  N          8.3840   19.9700   57.9770 N.3    29  PHE29      -0.1227
     49  CA         7.2720   19.6910   57.0760 C.3    29  PHE29       0.1736
     50  C          6.3850   18.5890   57.6310 C.2    29  PHE29       0.2595
     51  O          6.8120   17.8110   58.4770 O.2    29  PHE29      -0.2718
     52  CB         7.7900   19.2780   55.6980 C.3    29  PHE29       0.0547
     53  CG         8.8460   18.2150   55.7420 C.ar   29  PHE29      -0.0202
     54  CD1       10.1830   18.5540   55.9290 C.ar   29  PHE29      -0.0042
     55  CD2        8.5050   16.8750   55.6120 C.ar   29  PHE29      -0.0042
     56  CE1       11.1650   17.5740   55.9860 C.ar   29  PHE29      -0.0003
     57  CE2        9.4820   15.8850   55.6680 C.ar   29  PHE29      -0.0003
     58  CZ        10.8140   16.2360   55.8550 C.ar   29  PHE29      -0.0000
     59  N          5.1480   18.5290   57.1440 N.am   30  HIS30      -0.1961
     60  CA         4.1910   17.5270   57.5930 C.3    30  HIS30       0.1787
     61  C          4.5800   16.1250   57.1540 C.2    30  HIS30       0.2620
     62  O          5.0610   15.9230   56.0420 O.2    30  HIS30      -0.2715
     63  CB         2.8000   17.8650   57.0590 C.3    30  HIS30       0.0785
     64  CG         2.2030   19.0900   57.6740 C.ar   30  HIS30       0.0821
     65  ND1        1.8100   19.1400   58.9930 N.ar   30  HIS30      -0.2267
     66  CD2        1.9350   20.3120   57.1560 C.ar   30  HIS30       0.1154
     67  CE1        1.3240   20.3380   59.2610 C.ar   30  HIS30       0.1986
     68  NE2        1.3880   21.0680   58.1630 N.ar   30  HIS30      -0.2212
     69  N          4.3600   15.1570   58.0340 N.am   31  ASP31      -0.1957
     70  CA         4.6860   13.7690   57.7370 C.3    31  ASP31       0.1840
     71  C          3.6600   13.2280   56.7480 C.2    31  ASP31       0.2622
     72  O          2.4630   13.4610   56.9020 O.2    31  ASP31      -0.2715
     73  CB         4.6690   12.9400   59.0200 C.3    31  ASP31       0.1450
     74  CG         5.3370   11.5920   58.8470 C.2    31  ASP31       0.3671
     75  OD1        4.7680   10.7260   58.1500 O.co2  31  ASP31      -0.2456
     76  OD2        6.4400   11.4010   59.4030 O.co2  31  ASP31      -0.2456
     77  N          4.1320   12.5070   55.7350 N.am   32  ILE32      -0.1963
     78  CA         3.2430   11.9630   54.7080 C.3    32  ILE32       0.1727
     79  C          2.3540   10.8180   55.2010 C.2    32  ILE32       0.2616
     80  O          1.3680   10.4680   54.5480 O.2    32  ILE32      -0.2715
     81  CB         4.0510   11.4670   53.4800 C.3    32  ILE32       0.0290
     82  CG1        3.1010   11.1350   52.3360 C.3    32  ILE32       0.0022
     83  CG2        4.8540   10.2290   53.8370 C.3    32  ILE32       0.0023
     84  CD1        2.3500   12.3280   51.8050 C.3    32  ILE32       0.0001
     85  N          2.7120   10.2390   56.3420 N.am   33  SER33      -0.1950
     86  CA         1.9520    9.1380   56.9420 C.3    33  SER33       0.1924
     87  C          1.7190    9.4820   58.4130 C.2    33  SER33       0.2314
     88  O          2.2020    8.7890   59.3120 O.2    33  SER33      -0.2863
     89  CB         2.7430    7.8310   56.8430 C.3    33  SER33       0.2116
     90  OG         3.0590    7.5290   55.4950 O.3    33  SER33      -0.2180
     91  N          1.3230   15.8890   62.8970 N.3    39  HIS39      -0.1241
     92  CA         2.5090   15.0540   62.8780 C.3    39  HIS39       0.1621
     93  C          3.4180   15.5970   61.8010 C.2    39  HIS39       0.2264
     94  O          3.1440   15.4380   60.6120 O.2    39  HIS39      -0.2867
     95  CB         2.1340   13.6010   62.5620 C.3    39  HIS39       0.0745
     96  CG         3.2970   12.6540   62.5650 C.ar   39  HIS39       0.0817
     97  ND1        3.1610   11.3070   62.3010 N.ar   39  HIS39      -0.2268
     98  CD2        4.6160   12.8590   62.7960 C.ar   39  HIS39       0.1154
     99  CE1        4.3460   10.7250   62.3670 C.ar   39  HIS39       0.1986
    100  NE2        5.2460   11.6450   62.6650 N.ar   39  HIS39      -0.2212
    101  N          7.7910   16.6960   60.7900 N.3    41  LEU41      -0.1245
    102  CA         9.1850   16.3780   61.0450 C.3    41  LEU41       0.1561
    103  C         10.0230   17.6440   61.0000 C.2    41  LEU41       0.2260
    104  O          9.6660   18.6180   60.3400 O.2    41  LEU41      -0.2867
    105  CB         9.7290   15.4340   59.9750 C.3    41  LEU41       0.0270
    106  CG         8.9380   14.1770   59.6290 C.3    41  LEU41       0.0019
    107  CD1        9.6740   13.4020   58.5480 C.3    41  LEU41       0.0001
    108  CD2        8.7670   13.3350   60.8680 C.3    41  LEU41       0.0001
    109  N         14.1630    8.4050   66.1050 N.3    87  ASN87      -0.1240
    110  CA        14.4310    6.9770   65.9830 C.3    87  ASN87       0.1653
    111  C         15.8440    6.7150   65.5030 C.2    87  ASN87       0.2266
    112  O         16.3450    7.4030   64.6110 O.2    87  ASN87      -0.2867
    113  CB        13.4510    6.3120   65.0130 C.3    87  ASN87       0.1155
    114  CG        12.0200    6.3940   65.4860 C.2    87  ASN87       0.2627
    115  OD1       11.7470    6.3580   66.6850 O.2    87  ASN87      -0.2716
    116  ND2       11.0880    6.4820   64.5370 N.am   87  ASN87      -0.0877
    117  N         13.2490    1.9590   64.6580 N.3    93  GLY93      -0.1210
    118  CA        12.2650    2.0910   63.6030 C.3    93  GLY93       0.1956
    119  C         12.6860    3.0640   62.5160 C.2    93  GLY93       0.2612
    120  O         11.8630    3.4820   61.7080 O.2    93  GLY93      -0.2717
    121  N         13.9640    3.4330   62.4990 N.am   94  GLN94      -0.1965
    122  CA        14.4730    4.3610   61.4980 C.3    94  GLN94       0.1733
    123  C         14.5380    3.6850   60.1330 C.2    94  GLN94       0.2617
    124  O         15.1110    2.6050   59.9970 O.2    94  GLN94      -0.2715
    125  CB        15.8660    4.8620   61.8960 C.3    94  GLN94       0.0408
    126  CG        16.4980    5.8110   60.8820 C.3    94  GLN94       0.0908
    127  CD        17.7550    6.4890   61.4030 C.2    94  GLN94       0.2608
    128  OE1       18.4080    5.9910   62.3200 O.2    94  GLN94      -0.2717
    129  NE2       18.1060    7.6280   60.8060 N.am   94  GLN94      -0.0878
    130  N         13.9440    4.3180   59.1250 N.am   95  SER95      -0.1936
    131  CA        13.9490    3.7680   57.7770 C.3    95  SER95       0.2055
    132  C         14.6000    4.7300   56.7850 C.2    95  SER95       0.2642
    133  O         15.0910    4.3110   55.7270 O.2    95  SER95      -0.2714
    134  CB        12.5210    3.4010   57.3450 C.3    95  SER95       0.2130
    135  OG        11.5970    4.4290   57.6560 O.3    95  SER95      -0.2179
    136  N         14.6080    6.0150   57.1330 N.am   96  VAL96      -0.1977
    137  CA        15.2450    7.0480   56.3140 C.3    96  VAL96       0.1596
    138  C         16.4950    7.4580   57.0920 C.2    96  VAL96       0.2287
    139  O         16.4050    7.9020   58.2420 O.2    96  VAL96      -0.2864
    140  CB        14.3350    8.2750   56.1320 C.3    96  VAL96       0.0276
    141  CG1       15.0780    9.3720   55.3780 C.3    96  VAL96       0.0022
    142  CG2       13.0850    7.8750   55.3730 C.3    96  VAL96       0.0022
    143  N         16.0030   12.9730   61.8120 N.3   100  HIS100     -0.1241
    144  CA        14.7650   13.7370   61.7790 C.3   100  HIS100      0.1621
    145  C         14.0540   13.6470   63.1170 C.2   100  HIS100      0.2264
    146  O         14.1160   12.6250   63.7970 O.2   100  HIS100     -0.2867
    147  CB        13.8440   13.2620   60.6430 C.3   100  HIS100      0.0745
    148  CG        13.6100   11.7860   60.6160 C.ar  100  HIS100      0.0817
    149  ND1       14.5860   10.8840   60.2510 N.ar  100  HIS100     -0.2268
    150  CD2       12.5090   11.0540   60.9060 C.ar  100  HIS100      0.1154
    151  CE1       14.0960    9.6590   60.3180 C.ar  100  HIS100      0.1986
    152  NE2       12.8390    9.7350   60.7140 N.ar  100  HIS100     -0.2212
    153  N         10.4850   13.7760   65.0220 N.3   102  HIS102     -0.1241
    154  CA         9.0340   13.6680   64.8650 C.3   102  HIS102      0.1621
    155  C          8.3770   14.5190   65.9450 C.2   102  HIS102      0.2264
    156  O          8.8450   14.5590   67.0780 O.2   102  HIS102     -0.2867
    157  CB         8.5550   12.2290   65.0810 C.3   102  HIS102      0.0745
    158  CG         8.9650   11.2670   64.0110 C.ar  102  HIS102      0.0817
    159  ND1        8.1330   10.9110   62.9730 N.ar  102  HIS102     -0.2268
    160  CD2       10.1000   10.5470   63.8480 C.ar  102  HIS102      0.1154
    161  CE1        8.7340   10.0100   62.2180 C.ar  102  HIS102      0.1986
    162  NE2        9.9300    9.7700   62.7270 N.ar  102  HIS102     -0.2212
@<TRIPOS>BOND
     1    34    32    1
     2    42    41    1
     3    42    36    1
     4    28    29    1
     5    29    32    1
     6    29    30    1
     7    41    40    1
     8    32    33    1
     9    36    30   am
    10    36    37    1
    11    30    31    2
    12    40    37    1
    13    33    35    1
    14    37    38    1
    15    39    38    2
    16    38    43   am
    17    20    21    1
    18    43    44    1
    19    23    22    2
    20    21    22    1
    21    21    24    1
    22     4     3    2
    23     2     1    1
    24     2     3    1
    25     2     5    1
    26     6     5    1
    27     6     8    1
    28    25    24    1
    29    25    27    1
    30    44    45    1
    31    44    47    1
    32    46    45    2
    33     3     9   am
    34     7     5    1
    35    24    26    1
    36    84    82    1
    37    11    12    2
    38    11    10    1
    39     9    10    1
    40    82    81    1
    41    10    13    1
    42    81    83    1
    43    81    78    1
    44    13    14    1
    45    15    14   ar
    46    15    17   ar
    47    80    79    2
    48    78    79    1
    49    78    77    1
    50    14    16   ar
    51    79    85   am
    52    17    19   ar
    53   142   140    1
    54   141   140    1
    55    90    89    1
    56    55    57   ar
    57    55    53   ar
    58    57    58   ar
    59    52    53    1
    60    52    49    1
    61   133   132    2
    62    77    71   am
    63    53    54   ar
    64    58    56   ar
    65    54    56   ar
    66    62    61    2
    67   140   137    1
    68   137   138    1
    69   137   136    1
    70    85    86    1
    71    16    18   ar
    72    19    18   ar
    73    71    72    2
    74    71    70    1
    75   132   136   am
    76   132   131    1
    77    89    86    1
    78    86    87    1
    79    63    60    1
    80    63    64    1
    81    49    50    1
    82    49    48    1
    83   138   139    2
    84    59    60    1
    85    59    50   am
    86    61    60    1
    87    61    69   am
    88    66    64   ar
    89    66    68   ar
    90   134   135    1
    91   134   131    1
    92    50    51    2
    93    64    65   ar
    94    70    69    1
    95    70    73    1
    96   131   130    1
    97    75    74   ar
    98    68    67   ar
    99    87    88    2
   100   107   106    1
   101    74    73    1
   102    74    76   ar
   103    65    67   ar
   104   130   123   am
   105   106   105    1
   106   106   108    1
   107   105   102    1
   108   124   123    2
   109   123   122    1
   110   149   151   ar
   111   149   148   ar
   112   151   152   ar
   113   104   103    2
   114    94    93    2
   115   148   147    1
   116   148   150   ar
   117   147   144    1
   118   152   150   ar
   119   101   102    1
   120   129   127   am
   121   126   127    1
   122   126   125    1
   123   103   102    1
   124   127   128    2
   125   122   125    1
   126   122   121    1
   127   120   119    2
   128   144   143    1
   129   144   145    1
   130    93    92    1
   131   161   162   ar
   132   161   159   ar
   133    97    99   ar
   134    97    96   ar
   135    99   100   ar
   136   121   119   am
   137   119   118    1
   138    95    96    1
   139    95    92    1
   140    96    98   ar
   141   100    98   ar
   142   162   160   ar
   143    92    91    1
   144   159   158   ar
   145   145   146    2
   146   118   117    1
   147   160   158   ar
   148   158   157    1
   149   116   114   am
   150   112   111    2
   151   154   153    1
   152   154   157    1
   153   154   155    1
   154   113   114    1
   155   113   110    1
   156   114   115    2
   157   111   110    1
   158   155   156    2
   159   110   109    1
