@<TRIPOS>MOLECULE
tmp/1rzzE02.pdb
 148 147 0 0 0
SMALL
GASTEIGER

@<TRIPOS>ATOM
      1  N         30.9180   62.4400   22.8670 N.3    64  TRP64      -0.1241
      2  CA        29.5570   62.1220   23.2870 C.3    64  TRP64       0.1605
      3  C         29.4640   62.3380   24.8030 C.2    64  TRP64       0.2264
      4  O         28.6080   63.0740   25.2940 O.2    64  TRP64      -0.2867
      5  CB        29.2430   60.6630   22.9430 C.3    64  TRP64       0.0550
      6  CG        28.0270   60.1010   23.6310 C.ar   64  TRP64       0.0003
      7  CD1       26.7240   60.4700   23.4370 C.ar   64  TRP64       0.0946
      8  CD2       28.0070   59.0690   24.6290 C.ar   64  TRP64       0.0152
      9  NE1       25.9010   59.7340   24.2480 N.ar   64  TRP64      -0.2442
     10  CE2       26.6590   58.8640   24.9890 C.ar   64  TRP64       0.0810
     11  CE3       29.0010   58.2940   25.2510 C.ar   64  TRP64       0.0012
     12  CZ2       26.2740   57.9130   25.9460 C.ar   64  TRP64       0.0191
     13  CZ3       28.6150   57.3460   26.2040 C.ar   64  TRP64       0.0001
     14  CH2       27.2630   57.1680   26.5390 C.ar   64  TRP64       0.0015
     15  N         23.1200   62.2660   39.2810 N.3    88  PHE88      -0.1241
     16  CA        22.1750   61.2830   38.7620 C.3    88  PHE88       0.1605
     17  C         20.8380   61.8720   38.3300 C.2    88  PHE88       0.2264
     18  O         20.0370   61.2000   37.6820 O.2    88  PHE88      -0.2867
     19  CB        21.9510   60.1910   39.8060 C.3    88  PHE88       0.0534
     20  CG        23.1030   59.2330   39.9350 C.ar   88  PHE88      -0.0203
     21  CD1       24.3960   59.6220   39.5950 C.ar   88  PHE88      -0.0042
     22  CD2       22.8980   57.9390   40.4020 C.ar   88  PHE88      -0.0042
     23  CE1       25.4760   58.7360   39.7170 C.ar   88  PHE88      -0.0003
     24  CE2       23.9740   57.0400   40.5300 C.ar   88  PHE88      -0.0003
     25  CZ        25.2640   57.4460   40.1840 C.ar   88  PHE88      -0.0000
     26  N         27.8720   59.6020   19.3700 N.3   120  MET120     -0.1245
     27  CA        27.6660   58.2340   19.8370 C.3   120  MET120      0.1570
     28  C         27.4900   57.2960   18.6490 C.2   120  MET120      0.2261
     29  O         28.0170   56.1810   18.6330 O.2   120  MET120     -0.2867
     30  CB        26.4300   58.1540   20.7390 C.3   120  MET120      0.0387
     31  CG        26.2340   56.7860   21.3590 C.3   120  MET120      0.0595
     32  SD        24.8170   56.6990   22.4720 S.3   120  MET120     -0.1393
     33  CE        25.3280   55.3680   23.5210 C.3   120  MET120      0.0692
     34  N         19.2430   46.6260   19.1400 N.3   154  LEU154     -0.1231
     35  CA        18.3630   47.1790   20.1750 C.3   154  LEU154      0.1693
     36  C         18.6850   48.6620   20.3780 C.2   154  LEU154      0.2592
     37  O         17.7920   49.4910   20.5480 O.2   154  LEU154     -0.2718
     38  CB        18.5590   46.4470   21.5070 C.3   154  LEU154      0.0284
     39  CG        17.4260   46.4710   22.5490 C.3   154  LEU154      0.0019
     40  CD1       18.0410   46.5330   23.9410 C.3   154  LEU154      0.0001
     41  CD2       16.4860   47.6530   22.3390 C.3   154  LEU154      0.0001
     42  N         19.9740   48.9820   20.3700 N.am  155  TRP155     -0.1976
     43  CA        20.4520   50.3520   20.5470 C.3   155  TRP155      0.1640
     44  C         19.9710   51.2440   19.4010 C.2   155  TRP155      0.2290
     45  O         19.5230   52.3710   19.6390 O.2   155  TRP155     -0.2864
     46  CB        21.9870   50.3570   20.5980 C.3   155  TRP155      0.0576
     47  CG        22.6210   51.7180   20.5000 C.ar  155  TRP155      0.0006
     48  CD1       22.6280   52.6980   21.4540 C.ar  155  TRP155      0.0946
     49  CD2       23.3470   52.2410   19.3820 C.ar  155  TRP155      0.0152
     50  NE1       23.3170   53.7990   21.0000 N.ar  155  TRP155     -0.2442
     51  CE2       23.7690   53.5460   19.7300 C.ar  155  TRP155      0.0810
     52  CE3       23.6810   51.7350   18.1200 C.ar  155  TRP155      0.0012
     53  CZ2       24.5120   54.3530   18.8620 C.ar  155  TRP155      0.0191
     54  CZ3       24.4210   52.5380   17.2520 C.ar  155  TRP155      0.0001
     55  CH2       24.8280   53.8350   17.6310 C.ar  155  TRP155      0.0015
     56  N         16.1300   51.8950   19.6720 N.3   158  LEU158     -0.1245
     57  CA        15.7780   52.8460   20.7170 C.3   158  LEU158      0.1561
     58  C         15.9700   54.3160   20.3820 C.2   158  LEU158      0.2260
     59  O         15.0450   55.1070   20.5190 O.2   158  LEU158     -0.2867
     60  CB        16.5360   52.5080   22.0080 C.3   158  LEU158      0.0270
     61  CG        16.0320   51.2630   22.7540 C.3   158  LEU158      0.0019
     62  CD1       17.0950   50.7600   23.7150 C.3   158  LEU158      0.0001
     63  CD2       14.7370   51.6000   23.5020 C.3   158  LEU158      0.0001
     64  N         15.6830   57.9570   23.6790 N.3   173  VAL173     -0.1245
     65  CA        16.0490   57.9080   25.0930 C.3   173  VAL173      0.1561
     66  C         16.9600   59.0780   25.4690 C.2   173  VAL173      0.2260
     67  O         17.8740   59.4350   24.7200 O.2   173  VAL173     -0.2867
     68  CB        16.7620   56.5680   25.4240 C.3   173  VAL173      0.0252
     69  CG1       17.0080   56.4500   26.9150 C.3   173  VAL173      0.0019
     70  CG2       15.9190   55.3900   24.9230 C.3   173  VAL173      0.0019
     71  N         19.8340   61.1650   27.7680 N.3   175  TYR175     -0.1241
     72  CA        21.0950   60.7760   28.3950 C.3   175  TYR175      0.1605
     73  C         21.0640   61.2150   29.8450 C.2   175  TYR175      0.2264
     74  O         21.2080   62.3970   30.1470 O.2   175  TYR175     -0.2867
     75  CB        22.2760   61.4130   27.6550 C.3   175  TYR175      0.0534
     76  CG        22.3380   60.9890   26.1990 C.ar  175  TYR175     -0.0201
     77  CD1       22.5680   59.6620   25.8480 C.ar  175  TYR175     -0.0009
     78  CD2       22.0970   61.9050   25.1750 C.ar  175  TYR175     -0.0009
     79  CE1       22.5490   59.2540   24.5090 C.ar  175  TYR175      0.0417
     80  CE2       22.0740   61.5100   23.8370 C.ar  175  TYR175      0.0417
     81  CZ        22.2970   60.1890   23.5100 C.ar  175  TYR175      0.1957
     82  OH        22.2580   59.8010   22.1900 O.3   175  TYR175     -0.2866
     83  N         21.2200   59.1910   34.1220 N.3   177  ILE177     -0.1231
     84  CA        21.1140   57.9870   34.9390 C.3   177  ILE177      0.1692
     85  C         19.6710   57.6950   35.3370 C.2   177  ILE177      0.2592
     86  O         19.0890   56.7000   34.9060 O.2   177  ILE177     -0.2718
     87  CB        21.9830   58.1050   36.2040 C.3   177  ILE177      0.0266
     88  CG1       23.4400   58.3410   35.7990 C.3   177  ILE177      0.0019
     89  CG2       21.8610   56.8480   37.0370 C.3   177  ILE177      0.0020
     90  CD1       23.9730   57.2830   34.8350 C.3   177  ILE177      0.0001
     91  N         19.0920   58.5640   36.1540 N.am  178  PHE178     -0.1976
     92  CA        17.7150   58.3690   36.5830 C.3   178  PHE178      0.1639
     93  C         16.7160   58.6380   35.4590 C.2   178  PHE178      0.2290
     94  O         15.7020   57.9490   35.3500 O.2   178  PHE178     -0.2864
     95  CB        17.3810   59.2850   37.7670 C.3   178  PHE178      0.0560
     96  CG        18.0020   58.8630   39.0620 C.ar  178  PHE178     -0.0200
     97  CD1       18.5240   57.5860   39.2200 C.ar  178  PHE178     -0.0042
     98  CD2       18.0310   59.7370   40.1430 C.ar  178  PHE178     -0.0042
     99  CE1       19.0690   57.1840   40.4400 C.ar  178  PHE178     -0.0003
    100  CE2       18.5730   59.3470   41.3690 C.ar  178  PHE178     -0.0003
    101  CZ        19.0930   58.0670   41.5180 C.ar  178  PHE178     -0.0000
    102  N         16.8710   58.0870   32.1960 N.3   180  HIS180     -0.1226
    103  CA        16.6500   57.0100   31.2350 C.3   180  HIS180      0.1752
    104  C         15.8700   55.8720   31.8810 C.2   180  HIS180      0.2595
    105  O         15.2270   55.0860   31.1900 O.2   180  HIS180     -0.2718
    106  CB        17.9720   56.5490   30.5670 C.3   180  HIS180      0.0759
    107  CG        18.6320   55.3560   31.1930 C.ar  180  HIS180      0.0818
    108  ND1       19.2300   55.4200   32.4310 N.ar  180  HIS180     -0.2268
    109  CD2       18.8330   54.1220   30.6620 C.ar  180  HIS180      0.1154
    110  CE1       19.7870   54.2350   32.6230 C.ar  180  HIS180      0.1986
    111  NE2       19.5780   53.4100   31.5790 N.ar  180  HIS180     -0.2212
    112  N         15.8850   55.8040   33.2080 N.am  181  LEU181     -0.1980
    113  CA        15.1100   54.7750   33.8960 C.3   181  LEU181      0.1596
    114  C         13.6360   55.2150   33.8440 C.2   181  LEU181      0.2287
    115  O         12.7330   54.4000   33.6430 O.2   181  LEU181     -0.2864
    116  CB        15.5670   54.6260   35.3520 C.3   181  LEU181      0.0297
    117  CG        17.0050   54.1340   35.5550 C.3   181  LEU181      0.0022
    118  CD1       17.3160   54.0060   37.0410 C.3   181  LEU181      0.0001
    119  CD2       17.1850   52.8010   34.8650 C.3   181  LEU181      0.0001
    120  N         12.2590   57.0880   31.5620 N.3   183  TRP183     -0.1227
    121  CA        11.8270   56.8920   30.1850 C.3   183  TRP183      0.1737
    122  C         11.3920   55.4430   29.9900 C.2   183  TRP183      0.2596
    123  O         10.4050   55.1620   29.3180 O.2   183  TRP183     -0.2718
    124  CB        12.9830   57.2210   29.2400 C.3   183  TRP183      0.0564
    125  CG        12.6650   57.0330   27.7940 C.ar  183  TRP183      0.0003
    126  CD1       12.2590   57.9920   26.9080 C.ar  183  TRP183      0.0946
    127  CD2       12.7100   55.8010   27.0600 C.ar  183  TRP183      0.0152
    128  NE1       12.0500   57.4330   25.6680 N.ar  183  TRP183     -0.2442
    129  CE2       12.3190   56.0900   25.7350 C.ar  183  TRP183      0.0810
    130  CE3       13.0420   54.4800   27.3980 C.ar  183  TRP183      0.0012
    131  CZ2       12.2500   55.1040   24.7440 C.ar  183  TRP183      0.0191
    132  CZ3       12.9730   53.5030   26.4180 C.ar  183  TRP183      0.0001
    133  CH2       12.5800   53.8210   25.1040 C.ar  183  TRP183      0.0015
    134  N         12.1430   54.5290   30.5920 N.am  184  THR184     -0.1953
    135  CA        11.8630   53.1050   30.4920 C.3   184  THR184      0.1897
    136  C         10.5440   52.7210   31.1520 C.2   184  THR184      0.2313
    137  O          9.7720   51.9470   30.5880 O.2   184  THR184     -0.2863
    138  CB        13.0020   52.2960   31.1220 C.3   184  THR184      0.1794
    139  OG1       14.2320   52.6720   30.4980 O.3   184  THR184     -0.2208
    140  CG2       12.7910   50.8050   30.9270 C.3   184  THR184      0.0378
    141  N         10.4220   46.3390   20.8170 N.3   282  ILE282     -0.1245
    142  CA        10.3910   47.7870   20.9730 C.3   282  ILE282      0.1561
    143  C         10.0080   48.4740   19.6610 C.2   282  ILE282      0.2260
    144  O          9.2120   49.4100   19.6560 O.2   282  ILE282     -0.2867
    145  CB        11.7620   48.3130   21.4510 C.3   282  ILE282      0.0252
    146  CG1       12.0580   47.7630   22.8510 C.3   282  ILE282      0.0019
    147  CG2       11.7730   49.8390   21.4630 C.3   282  ILE282      0.0019
    148  CD1       11.0450   48.1940   23.9240 C.3   282  ILE282      0.0001
@<TRIPOS>BOND
     1    54    55   ar
     2    54    52   ar
     3    55    53   ar
     4    52    49   ar
     5    29    28    2
     6    28    27    1
     7    53    51   ar
     8    34    35    1
     9    26    27    1
    10    49    51   ar
    11    49    47   ar
    12    44    45    2
    13    44    43    1
    14   144   143    2
    15   143   142    1
    16    56    57    1
    17    51    50   ar
    18    27    30    1
    19    35    36    1
    20    35    38    1
    21    42    36   am
    22    42    43    1
    23    36    37    2
    24    58    59    2
    25    58    57    1
    26    47    46    1
    27    47    48   ar
    28    43    46    1
    29    57    60    1
    30    30    31    1
    31   141   142    1
    32   142   145    1
    33    50    48   ar
    34    31    32    1
    35   145   147    1
    36   145   146    1
    37    38    39    1
    38    60    61    1
    39    82    81    1
    40    41    39    1
    41    32    33    1
    42    39    40    1
    43    61    63    1
    44    61    62    1
    45   146   148    1
    46     1     2    1
    47     5     2    1
    48     5     6    1
    49     2     3    1
    50     7     6   ar
    51     7     9   ar
    52    81    80   ar
    53    81    79   ar
    54     6     8   ar
    55    64    65    1
    56    80    78   ar
    57     9    10   ar
    58    79    77   ar
    59     8    10   ar
    60     8    11   ar
    61    67    66    2
    62   131   133   ar
    63   131   129   ar
    64     3     4    2
    65    70    68    1
    66    10    12   ar
    67    65    68    1
    68    65    66    1
    69   133   132   ar
    70    78    76   ar
    71    11    13   ar
    72    68    69    1
    73   128   129   ar
    74   128   126   ar
    75   129   127   ar
    76    77    76   ar
    77    12    14   ar
    78    76    75    1
    79    13    14   ar
    80   132   130   ar
    81   126   125   ar
    82   127   130   ar
    83   127   125   ar
    84    75    72    1
    85    71    72    1
    86   125   124    1
    87    72    73    1
    88   124   121    1
    89   123   122    2
    90    73    74    2
    91   122   121    1
    92   122   134   am
    93   121   120    1
    94   135   134    1
    95   135   138    1
    96   135   136    1
    97   139   138    1
    98   106   107    1
    99   106   103    1
   100   137   136    2
   101   109   107   ar
   102   109   111   ar
   103   140   138    1
   104   105   104    2
   105   107   108   ar
   106   103   104    1
   107   103   102    1
   108   111   110   ar
   109   104   112   am
   110   108   110   ar
   111   112   113    1
   112   115   114    2
   113   114   113    1
   114   113   116    1
   115    83    84    1
   116    90    88    1
   117   119   117    1
   118    86    85    2
   119    84    85    1
   120    84    87    1
   121    85    91   am
   122    94    93    2
   123   116   117    1
   124    93    92    1
   125   117   118    1
   126    88    87    1
   127    91    92    1
   128    87    89    1
   129    92    95    1
   130    18    17    2
   131    95    96    1
   132    17    16    1
   133    16    15    1
   134    16    19    1
   135    96    97   ar
   136    96    98   ar
   137    97    99   ar
   138    21    23   ar
   139    21    20   ar
   140    23    25   ar
   141    19    20    1
   142    20    22   ar
   143    98   100   ar
   144    25    24   ar
   145    22    24   ar
   146    99   101   ar
   147   100   101   ar
