@<TRIPOS>MOLECULE
tmp/1rzzE05.pdb
 152 146 0 0 0
SMALL
GASTEIGER

@<TRIPOS>ATOM
      1  N         36.8000   56.2830   16.7440 N.3    57  SER57      -0.1202
      2  CA        35.8070   55.7750   17.6870 C.3    57  SER57       0.2020
      3  C         36.0120   56.3530   19.0760 C.2    57  SER57       0.2618
      4  O         35.0640   56.7720   19.7320 O.2    57  SER57      -0.2717
      5  CB        35.8810   54.2500   17.7640 C.3    57  SER57       0.2103
      6  OG        34.8660   53.7340   18.6080 O.3    57  SER57      -0.2182
      7  N         37.2640   56.3730   19.5130 N.am   58  LEU58      -0.1979
      8  CA        37.6150   56.8870   20.8270 C.3    58  LEU58       0.1596
      9  C         37.3370   58.3870   20.9220 C.2    58  LEU58       0.2287
     10  O         36.8860   58.8810   21.9560 O.2    58  LEU58      -0.2864
     11  CB        39.0930   56.5950   21.0990 C.3    58  LEU58       0.0297
     12  CG        39.5970   56.5230   22.5410 C.3    58  LEU58       0.0022
     13  CD1       41.0050   55.9300   22.5480 C.3    58  LEU58       0.0001
     14  CD2       39.5900   57.9010   23.1660 C.3    58  LEU58       0.0001
     15  N         33.3930   58.8630   21.0300 N.3    61  GLY61      -0.1210
     16  CA        32.9100   58.3820   22.3100 C.3    61  GLY61       0.1956
     17  C         33.1250   59.4120   23.3970 C.2    61  GLY61       0.2611
     18  O         32.2360   59.6760   24.2040 O.2    61  GLY61      -0.2717
     19  N         34.3130   60.0020   23.4140 N.am   62  LEU62      -0.1979
     20  CA        34.6290   61.0140   24.4010 C.3    62  LEU62       0.1596
     21  C         33.8120   62.2700   24.1340 C.2    62  LEU62       0.2287
     22  O         33.3120   62.8940   25.0740 O.2    62  LEU62      -0.2864
     23  CB        36.1270   61.3300   24.3710 C.3    62  LEU62       0.0297
     24  CG        37.0350   60.2030   24.8750 C.3    62  LEU62       0.0022
     25  CD1       38.5000   60.5990   24.7020 C.3    62  LEU62       0.0001
     26  CD2       36.7310   59.9270   26.3520 C.3    62  LEU62       0.0001
     27  N         30.9180   62.4400   22.8670 N.3    64  TRP64      -0.1227
     28  CA        29.5570   62.1220   23.2870 C.3    64  TRP64       0.1737
     29  C         29.4640   62.3380   24.8030 C.2    64  TRP64       0.2595
     30  O         28.6080   63.0740   25.2940 O.2    64  TRP64      -0.2718
     31  CB        29.2430   60.6630   22.9430 C.3    64  TRP64       0.0564
     32  CG        28.0270   60.1010   23.6310 C.ar   64  TRP64       0.0003
     33  CD1       26.7240   60.4700   23.4370 C.ar   64  TRP64       0.0946
     34  CD2       28.0070   59.0690   24.6290 C.ar   64  TRP64       0.0152
     35  NE1       25.9010   59.7340   24.2480 N.ar   64  TRP64      -0.2442
     36  CE2       26.6590   58.8640   24.9890 C.ar   64  TRP64       0.0810
     37  CE3       29.0010   58.2940   25.2510 C.ar   64  TRP64       0.0012
     38  CZ2       26.2740   57.9130   25.9460 C.ar   64  TRP64       0.0191
     39  CZ3       28.6150   57.3460   26.2040 C.ar   64  TRP64       0.0001
     40  CH2       27.2630   57.1680   26.5390 C.ar   64  TRP64       0.0015
     41  N         30.3730   61.7000   25.5270 N.am   65  PHE65      -0.1976
     42  CA        30.4370   61.7840   26.9830 C.3    65  PHE65       0.1639
     43  C         30.6360   63.2310   27.4550 C.2    65  PHE65       0.2290
     44  O         30.0760   63.6450   28.4740 O.2    65  PHE65      -0.2864
     45  CB        31.5920   60.9080   27.4800 C.3    65  PHE65       0.0560
     46  CG        31.5530   60.6140   28.9490 C.ar   65  PHE65      -0.0200
     47  CD1       30.5820   59.7680   29.4750 C.ar   65  PHE65      -0.0042
     48  CD2       32.5020   61.1650   29.8050 C.ar   65  PHE65      -0.0042
     49  CE1       30.5570   59.4720   30.8350 C.ar   65  PHE65      -0.0003
     50  CE2       32.4880   60.8780   31.1660 C.ar   65  PHE65      -0.0003
     51  CZ        31.5140   60.0290   31.6860 C.ar   65  PHE65      -0.0000
     52  N         30.8130   56.7170   17.1180 N.3   123  ALA123     -0.1231
     53  CA        31.6060   55.9380   18.0690 C.3   123  ALA123      0.1694
     54  C         31.2730   54.4480   18.0320 C.2   123  ALA123      0.2591
     55  O         32.1630   53.6050   17.8890 O.2   123  ALA123     -0.2718
     56  CB        31.4200   56.4820   19.4900 C.3   123  ALA123      0.0304
     57  N         29.9900   54.1220   18.1430 N.am  124  VAL124     -0.1980
     58  CA        29.5640   52.7280   18.1470 C.3   124  VAL124      0.1595
     59  C         29.7620   52.0020   16.8160 C.2   124  VAL124      0.2287
     60  O         30.2550   50.8730   16.7910 O.2   124  VAL124     -0.2864
     61  CB        28.0830   52.6140   18.5910 C.3   124  VAL124      0.0276
     62  CG1       27.5890   51.1730   18.4440 C.3   124  VAL124      0.0022
     63  CG2       27.9480   53.0900   20.0290 C.3   124  VAL124      0.0022
     64  N         33.3780   51.5490   16.1540 N.3   127  TRP127     -0.1241
     65  CA        33.8960   50.5130   17.0450 C.3   127  TRP127      0.1605
     66  C         33.4900   49.1430   16.5120 C.2   127  TRP127      0.2264
     67  O         34.2250   48.1700   16.6640 O.2   127  TRP127     -0.2867
     68  CB        33.3770   50.6970   18.4810 C.3   127  TRP127      0.0550
     69  CG        34.0190   49.7450   19.4550 C.ar  127  TRP127      0.0003
     70  CD1       33.5980   48.4820   19.7700 C.ar  127  TRP127      0.0946
     71  CD2       35.2590   49.9380   20.1550 C.ar  127  TRP127      0.0152
     72  NE1       34.5000   47.8760   20.6140 N.ar  127  TRP127     -0.2442
     73  CE2       35.5280   48.7460   20.8670 C.ar  127  TRP127      0.0810
     74  CE3       36.1730   50.9990   20.2420 C.ar  127  TRP127      0.0012
     75  CZ2       36.6760   48.5860   21.6600 C.ar  127  TRP127      0.0191
     76  CZ3       37.3180   50.8390   21.0310 C.ar  127  TRP127      0.0001
     77  CH2       37.5540   49.6390   21.7290 C.ar  127  TRP127      0.0015
     78  N         35.7840   45.8320   15.5230 N.3   131  THR131     -0.1218
     79  CA        35.6950   44.4500   15.9880 C.3   131  THR131      0.1862
     80  C         35.8320   43.4960   14.8130 C.2   131  THR131      0.2287
     81  O         36.4030   42.4150   14.9400 O.2   131  THR131     -0.2866
     82  CB        34.3520   44.1590   16.7160 C.3   131  THR131      0.1770
     83  OG1       33.2660   44.1770   15.7770 O.3   131  THR131     -0.2211
     84  CG2       34.1030   45.1960   17.7930 C.3   131  THR131      0.0375
     85  N         32.2970   37.6880   16.6850 N.3   144  THR144     -0.1218
     86  CA        32.1960   38.7970   17.6300 C.3   144  THR144      0.1862
     87  C         31.4340   39.9700   17.0120 C.2   144  THR144      0.2287
     88  O         30.5430   40.5450   17.6380 O.2   144  THR144     -0.2866
     89  CB        33.5970   39.2660   18.0890 C.3   144  THR144      0.1770
     90  OG1       34.2640   38.1890   18.7640 O.3   144  THR144     -0.2211
     91  CG2       33.4780   40.4480   19.0350 C.3   144  THR144      0.0375
     92  N         27.6640   39.1250   16.7130 N.3   147  ALA147     -0.1231
     93  CA        26.9810   39.1740   17.9920 C.3   147  ALA147      0.1694
     94  C         26.7840   40.6290   18.3890 C.2   147  ALA147      0.2592
     95  O         25.7210   41.0130   18.8690 O.2   147  ALA147     -0.2718
     96  CB        27.7870   38.4300   19.0540 C.3   147  ALA147      0.0304
     97  N         27.8130   41.4400   18.1670 N.am  148  PHE148     -0.1976
     98  CA        27.7490   42.8560   18.5070 C.3   148  PHE148      0.1639
     99  C         26.5970   43.5630   17.7710 C.2   148  PHE148      0.2290
    100  O         25.9630   44.4590   18.3310 O.2   148  PHE148     -0.2864
    101  CB        29.1030   43.5200   18.2040 C.3   148  PHE148      0.0560
    102  CG        29.2210   44.9430   18.7000 C.ar  148  PHE148     -0.0200
    103  CD1       28.4480   45.3990   19.7640 C.ar  148  PHE148     -0.0042
    104  CD2       30.1240   45.8210   18.1100 C.ar  148  PHE148     -0.0042
    105  CE1       28.5700   46.7060   20.2350 C.ar  148  PHE148     -0.0003
    106  CE2       30.2510   47.1300   18.5760 C.ar  148  PHE148     -0.0003
    107  CZ        29.4690   47.5710   19.6420 C.ar  148  PHE148     -0.0000
    108  N         23.6840   42.4740   17.1760 N.3   150  SER150     -0.1202
    109  CA        22.4380   42.2400   17.8970 C.3   150  SER150      0.2020
    110  C         22.2730   43.2960   18.9890 C.2   150  SER150      0.2618
    111  O         21.1630   43.7650   19.2420 O.2   150  SER150     -0.2717
    112  CB        22.4350   40.8460   18.5210 C.3   150  SER150      0.2103
    113  OG        21.2270   40.6230   19.2220 O.3   150  SER150     -0.2182
    114  N         23.3780   43.6640   19.6350 N.am  151  ALA151     -0.1979
    115  CA        23.3410   44.6810   20.6820 C.3   151  ALA151      0.1597
    116  C         23.0430   46.0250   20.0230 C.2   151  ALA151      0.2287
    117  O         22.1740   46.7820   20.4710 O.2   151  ALA151     -0.2864
    118  CB        24.6880   44.7430   21.4220 C.3   151  ALA151      0.0319
    119  N         17.3510   36.5400   28.7580 N.3   207  LEU207     -0.1245
    120  CA        18.2110   37.2500   29.6990 C.3   207  LEU207      0.1561
    121  C         18.4350   36.3170   30.8890 C.2   207  LEU207      0.2260
    122  O         19.5640   36.1380   31.3540 O.2   207  LEU207     -0.2867
    123  CB        17.5620   38.5530   30.1780 C.3   207  LEU207      0.0270
    124  CG        18.4450   39.3630   31.1330 C.3   207  LEU207      0.0019
    125  CD1       19.7050   39.8100   30.4020 C.3   207  LEU207      0.0001
    126  CD2       17.6990   40.5670   31.6480 C.3   207  LEU207      0.0001
    127  N         22.5590   34.6520   24.2590 N.3   271  ALA271     -0.1231
    128  CA        22.7790   36.0590   24.5840 C.3   271  ALA271      0.1694
    129  C         22.3010   36.9960   23.4850 C.2   271  ALA271      0.2591
    130  O         21.6380   38.0010   23.7580 O.2   271  ALA271     -0.2718
    131  CB        24.2660   36.3030   24.8600 C.3   271  ALA271      0.0304
    132  N         22.6480   36.6660   22.2450 N.am  272  VAL272     -0.1980
    133  CA        22.2640   37.4770   21.0970 C.3   272  VAL272      0.1595
    134  C         20.7470   37.6100   20.9980 C.2   272  VAL272      0.2287
    135  O         20.2320   38.6850   20.6940 O.2   272  VAL272     -0.2864
    136  CB        22.8280   36.8740   19.7850 C.3   272  VAL272      0.0276
    137  CG1       22.1400   37.4940   18.5740 C.3   272  VAL272      0.0022
    138  CG2       24.3320   37.1220   19.7150 C.3   272  VAL272      0.0022
    139  N         18.7220   37.9330   23.2290 N.3   274  VAL274     -0.1231
    140  CA        18.2350   38.8870   24.2230 C.3   274  VAL274      0.1692
    141  C         17.8780   40.2120   23.5500 C.2   274  VAL274      0.2592
    142  O         16.7650   40.7170   23.6770 O.2   274  VAL274     -0.2718
    143  CB        19.3090   39.1830   25.3070 C.3   274  VAL274      0.0266
    144  CG1       18.7830   40.2340   26.2910 C.3   274  VAL274      0.0020
    145  CG2       19.6980   37.9050   26.0340 C.3   274  VAL274      0.0020
    146  N         18.8390   40.7740   22.8300 N.am  275  THR275     -0.1953
    147  CA        18.6320   42.0480   22.1570 C.3   275  THR275      0.1897
    148  C         17.9630   41.9150   20.7960 C.2   275  THR275      0.2313
    149  O         17.3890   42.8810   20.2880 O.2   275  THR275     -0.2863
    150  CB        19.9610   42.8050   22.0100 C.3   275  THR275      0.1794
    151  OG1       20.9630   41.9210   21.5000 O.3   275  THR275     -0.2208
    152  CG2       20.4070   43.3360   23.3600 C.3   275  THR275      0.0378
@<TRIPOS>BOND
     1    80    81    2
     2    80    79    1
     3    78    79    1
     4    83    82    1
     5    79    82    1
     6    64    65    1
     7    66    67    2
     8    66    65    1
     9    85    86    1
    10    92    93    1
    11    82    84    1
    12     1     2    1
    13    60    59    2
    14    59    58    1
    15    87    86    1
    16    87    88    2
    17    65    68    1
    18    52    53    1
    19   108   109    1
    20    86    89    1
    21     2     5    1
    22     2     3    1
    23     5     6    1
    24    99   100    2
    25    99    98    1
    26    55    54    2
    27   109   112    1
    28   109   110    1
    29    93    94    1
    30    93    96    1
    31    54    53    1
    32    54    57   am
    33    53    56    1
    34    89    90    1
    35    89    91    1
    36   104   106   ar
    37   104   102   ar
    38    57    58    1
    39    58    61    1
    40    97    94   am
    41    97    98    1
    42   101    98    1
    43   101   102    1
    44    94    95    2
    45    62    61    1
    46    68    69    1
    47   112   113    1
    48   137   136    1
    49   106   107   ar
    50    61    63    1
    51   102   103   ar
    52   110   111    2
    53   110   114   am
    54     3     7   am
    55     3     4    2
    56    69    70   ar
    57    69    71   ar
    58     7     8    1
    59   114   115    1
    60   107   105   ar
    61   138   136    1
    62   103   105   ar
    63    70    72   ar
    64   136   133    1
    65   116   117    2
    66   116   115    1
    67    71    74   ar
    68    71    73   ar
    69    74    76   ar
    70   149   148    2
    71    72    73   ar
    72   115   118    1
    73   135   134    2
    74   148   147    1
    75     8     9    1
    76     8    11    1
    77    73    75   ar
    78     9    10    2
    79   134   133    1
    80    15    16    1
    81    76    77   ar
    82   133   132    1
    83    11    12    1
    84   151   150    1
    85    75    77   ar
    86   150   147    1
    87   150   152    1
    88   147   146    1
    89   132   129   am
    90    16    17    1
    91    12    13    1
    92    12    14    1
    93   146   141   am
    94    27    28    1
    95    31    28    1
    96    31    32    1
    97   139   140    1
    98    28    29    1
    99    17    19   am
   100    17    18    2
   101    19    20    1
   102    33    32   ar
   103    33    35   ar
   104   129   130    2
   105   129   128    1
   106   141   142    2
   107   141   140    1
   108    32    34   ar
   109    21    20    1
   110    21    22    2
   111   140   143    1
   112    35    36   ar
   113   127   128    1
   114    23    20    1
   115    23    24    1
   116   128   131    1
   117    34    36   ar
   118    34    37   ar
   119    25    24    1
   120    29    30    2
   121    29    41   am
   122    24    26    1
   123    36    38   ar
   124    37    39   ar
   125   143   145    1
   126   143   144    1
   127    41    42    1
   128    38    40   ar
   129    39    40   ar
   130    42    43    1
   131    42    45    1
   132    43    44    2
   133    45    46    1
   134   119   120    1
   135    46    47   ar
   136    46    48   ar
   137    47    49   ar
   138   120   123    1
   139   120   121    1
   140    48    50   ar
   141   123   124    1
   142   125   124    1
   143    49    51   ar
   144   121   122    2
   145   124   126    1
   146    50    51   ar
