@<TRIPOS>MOLECULE
tmp/1rzzE06.pdb
 162 157 0 0 0
SMALL
GASTEIGER

@<TRIPOS>ATOM
      1  N         21.5120   31.5080   33.3120 N.3   212  LEU212     -0.1231
      2  CA        21.3620   30.0900   33.6080 C.3   212  LEU212      0.1693
      3  C         22.4830   29.3380   32.8730 C.2   212  LEU212      0.2591
      4  O         23.2310   28.5600   33.4760 O.2   212  LEU212     -0.2718
      5  CB        19.9890   29.6030   33.1200 C.3   212  LEU212      0.0284
      6  CG        19.7510   28.1140   32.8380 C.3   212  LEU212      0.0019
      7  CD1       19.8090   27.3090   34.1260 C.3   212  LEU212      0.0001
      8  CD2       18.3850   27.9470   32.1770 C.3   212  LEU212      0.0001
      9  N         22.6060   29.6050   31.5740 N.am  213  LEU213     -0.1980
     10  CA        23.6050   28.9490   30.7420 C.3   213  LEU213      0.1596
     11  C         25.0570   29.2570   31.1130 C.2   213  LEU213      0.2287
     12  O         25.8930   28.3500   31.1320 O.2   213  LEU213     -0.2864
     13  CB        23.3630   29.2860   29.2690 C.3   213  LEU213      0.0297
     14  CG        24.2060   28.4790   28.2770 C.3   213  LEU213      0.0022
     15  CD1       23.9430   26.9710   28.4780 C.3   213  LEU213      0.0001
     16  CD2       23.8740   28.9030   26.8450 C.3   213  LEU213      0.0001
     17  N         25.8090   27.4920   34.3020 N.3   216  MET216     -0.1230
     18  CA        25.9880   26.0810   33.9930 C.3   216  MET216      0.1702
     19  C         27.3490   25.8240   33.3540 C.2   216  MET216      0.2592
     20  O         28.1330   25.0050   33.8400 O.2   216  MET216     -0.2718
     21  CB        24.9150   25.6010   33.0130 C.3   216  MET216      0.0401
     22  CG        23.5160   25.4700   33.5730 C.3   216  MET216      0.0596
     23  SD        22.3360   25.1400   32.2440 S.3   216  MET216     -0.1393
     24  CE        23.0160   23.6900   31.4810 C.3   216  MET216      0.0692
     25  N         27.6110   26.5210   32.2510 N.am  217  HIS217     -0.1976
     26  CA        28.8490   26.3440   31.5090 C.3   217  HIS217      0.1656
     27  C         30.0910   26.7320   32.2910 C.2   217  HIS217      0.2291
     28  O         31.0810   26.0060   32.2950 O.2   217  HIS217     -0.2864
     29  CB        28.8010   27.1370   30.2040 C.3   217  HIS217      0.0771
     30  CG        30.0520   27.0280   29.3940 C.ar  217  HIS217      0.0820
     31  ND1       30.5420   25.8110   29.0000 N.ar  217  HIS217     -0.2267
     32  CD2       30.8690   28.0120   28.9390 C.ar  217  HIS217      0.1154
     33  CE1       31.6400   26.0720   28.3160 C.ar  217  HIS217      0.1986
     34  NE2       31.8810   27.3920   28.2500 N.ar  217  HIS217     -0.2212
     35  N         30.6980   24.1780   34.8570 N.3   220  THR220     -0.1203
     36  CA        31.0650   22.9120   34.2460 C.3   220  THR220      0.1994
     37  C         32.5610   22.8950   33.9430 C.2   220  THR220      0.2617
     38  O         33.2610   21.9200   34.2560 O.2   220  THR220     -0.2717
     39  CB        30.2780   22.6730   32.9320 C.3   220  THR220      0.1784
     40  OG1       28.8690   22.6390   33.2100 O.3   220  THR220     -0.2211
     41  CG2       30.6940   21.3510   32.2890 C.3   220  THR220      0.0376
     42  N         33.0460   23.9730   33.3300 N.am  221  ILE221     -0.1979
     43  CA        34.4580   24.0800   32.9850 C.3   221  ILE221      0.1595
     44  C         35.3170   24.1220   34.2530 C.2   221  ILE221      0.2287
     45  O         36.3750   23.4920   34.3070 O.2   221  ILE221     -0.2864
     46  CB        34.7390   25.3380   32.1040 C.3   221  ILE221      0.0276
     47  CG1       34.0420   25.1900   30.7440 C.3   221  ILE221      0.0022
     48  CG2       36.2440   25.5320   31.9180 C.3   221  ILE221      0.0022
     49  CD1       34.3880   23.9150   29.9960 C.3   221  ILE221      0.0001
     50  N         36.1710   16.9640   28.3710 N.3   243  ALA243     -0.1245
     51  CA        34.9470   17.1630   27.6060 C.3   243  ALA243      0.1562
     52  C         33.9150   16.0400   27.7920 C.2   243  ALA243      0.2260
     53  O         32.7110   16.2940   27.8100 O.2   243  ALA243     -0.2867
     54  CB        35.2890   17.3300   26.1130 C.3   243  ALA243      0.0290
     55  N         32.1710   16.3380   31.2220 N.3   246  ALA246     -0.1231
     56  CA        31.2920   17.5010   31.1950 C.3   246  ALA246      0.1694
     57  C         30.0130   17.1300   30.4520 C.2   246  ALA246      0.2591
     58  O         28.9010   17.3970   30.9250 O.2   246  ALA246     -0.2718
     59  CB        31.9850   18.6730   30.5020 C.3   246  ALA246      0.0304
     60  N         30.1790   16.4980   29.2940 N.am  247  ALA247     -0.1980
     61  CA        29.0440   16.0750   28.4860 C.3   247  ALA247      0.1597
     62  C         28.1680   15.0940   29.2640 C.2   247  ALA247      0.2287
     63  O         26.9510   15.2900   29.3910 O.2   247  ALA247     -0.2864
     64  CB        29.5300   15.4270   27.1900 C.3   247  ALA247      0.0319
     65  N         25.7900   16.3160   32.0920 N.3   250  TRP250     -0.1241
     66  CA        24.5030   16.8300   31.6670 C.3   250  TRP250      0.1605
     67  C         23.5990   15.7860   31.0410 C.2   250  TRP250      0.2264
     68  O         22.3820   15.8350   31.2180 O.2   250  TRP250     -0.2867
     69  CB        24.7040   18.0310   30.7420 C.3   250  TRP250      0.0550
     70  CG        25.2820   19.1860   31.4980 C.ar  250  TRP250      0.0003
     71  CD1       26.5720   19.6300   31.4670 C.ar  250  TRP250      0.0946
     72  CD2       24.6040   19.9920   32.4700 C.ar  250  TRP250      0.0152
     73  NE1       26.7400   20.6640   32.3590 N.ar  250  TRP250     -0.2442
     74  CE2       25.5480   20.9050   32.9890 C.ar  250  TRP250      0.0810
     75  CE3       23.2890   20.0280   32.9550 C.ar  250  TRP250      0.0012
     76  CZ2       25.2200   21.8450   33.9720 C.ar  250  TRP250      0.0191
     77  CZ3       22.9630   20.9650   33.9330 C.ar  250  TRP250      0.0001
     78  CH2       23.9260   21.8600   34.4300 C.ar  250  TRP250      0.0015
     79  N         22.1410   14.0800   33.8720 N.3   253  THR253     -0.1203
     80  CA        21.2830   14.9830   34.6420 C.3   253  THR253      0.1994
     81  C         19.9800   15.3750   33.9420 C.2   253  THR253      0.2617
     82  O         18.8960   15.1680   34.4880 O.2   253  THR253     -0.2717
     83  CB        22.0210   16.3010   35.0150 C.3   253  THR253      0.1784
     84  OG1       23.1390   16.0200   35.8700 O.3   253  THR253     -0.2211
     85  CG2       21.0720   17.2510   35.7320 C.3   253  THR253      0.0376
     86  N         20.0780   15.9410   32.7400 N.am  254  MET254     -0.1979
     87  CA        18.8810   16.3830   32.0370 C.3   254  MET254      0.1605
     88  C         18.4730   15.6110   30.7930 C.2   254  MET254      0.2287
     89  O         17.4830   15.9570   30.1570 O.2   254  MET254     -0.2864
     90  CB        18.9870   17.8780   31.7020 C.3   254  MET254      0.0413
     91  CG        20.0890   18.2470   30.7220 C.3   254  MET254      0.0598
     92  SD        20.1510   20.0370   30.4350 S.3   254  MET254     -0.1393
     93  CE        21.6340   20.1780   29.4840 C.3   254  MET254      0.0692
     94  N         20.1190   15.2360   27.7950 N.3   256  PHE256     -0.1227
     95  CA        20.8690   15.5350   26.5810 C.3   256  PHE256      0.1736
     96  C         22.1000   16.3420   26.9640 C.2   256  PHE256      0.2595
     97  O         22.2430   16.7470   28.1190 O.2   256  PHE256     -0.2718
     98  CB        20.0020   16.2870   25.5520 C.3   256  PHE256      0.0547
     99  CG        19.6100   17.6760   25.9680 C.ar  256  PHE256     -0.0202
    100  CD1       18.8360   17.8890   27.1110 C.ar  256  PHE256     -0.0042
    101  CD2       20.0180   18.7800   25.2160 C.ar  256  PHE256     -0.0042
    102  CE1       18.4760   19.1840   27.5000 C.ar  256  PHE256     -0.0003
    103  CE2       19.6630   20.0820   25.5970 C.ar  256  PHE256     -0.0003
    104  CZ        18.8920   20.2820   26.7420 C.ar  256  PHE256     -0.0000
    105  N         22.9930   16.5640   26.0080 N.am  257  ASN257     -0.1960
    106  CA        24.2220   17.2950   26.2830 C.3   257  ASN257      0.1819
    107  C         24.7730   17.9510   25.0230 C.2   257  ASN257      0.2621
    108  O         24.2040   17.8190   23.9420 O.2   257  ASN257     -0.2715
    109  CB        25.2720   16.3410   26.8380 C.3   257  ASN257      0.1195
    110  CG        25.5210   15.1730   25.9120 C.2   257  ASN257      0.2630
    111  OD1       24.8280   14.1540   25.9770 O.2   257  ASN257     -0.2716
    112  ND2       26.4940   15.3240   25.0180 N.am  257  ASN257     -0.0877
    113  N         25.9020   18.6350   25.1700 N.am  258  ALA258     -0.1963
    114  CA        26.5310   19.3310   24.0550 C.3   258  ALA258      0.1728
    115  C         27.9360   18.8120   23.7730 C.2   258  ALA258      0.2617
    116  O         28.3220   17.7480   24.2400 O.2   258  ALA258     -0.2715
    117  CB        26.5880   20.8240   24.3610 C.3   258  ALA258      0.0334
    118  N         28.6850   19.5810   22.9900 N.am  259  THR259     -0.1937
    119  CA        30.0680   19.2700   22.6580 C.3   259  THR259      0.2028
    120  C         30.8530   20.5150   23.0600 C.2   259  THR259      0.2642
    121  O         30.2640   21.5780   23.2760 O.2   259  THR259     -0.2714
    122  CB        30.2620   19.0350   21.1600 C.3   259  THR259      0.1808
    123  OG1       29.7940   20.1810   20.4410 O.3   259  THR259     -0.2208
    124  CG2       29.5130   17.7860   20.7090 C.3   259  THR259      0.0379
    125  N         32.1740   20.3960   23.1550 N.am  260  MET260     -0.1976
    126  CA        32.9980   21.5270   23.5580 C.3   260  MET260      0.1605
    127  C         32.8250   22.7320   22.6130 C.2   260  MET260      0.2287
    128  O         32.9040   23.8800   23.0450 O.2   260  MET260     -0.2864
    129  CB        34.4670   21.0880   23.6490 C.3   260  MET260      0.0413
    130  CG        35.3860   22.0480   24.4140 C.3   260  MET260      0.0598
    131  SD        34.9810   22.3270   26.1810 S.3   260  MET260     -0.1393
    132  CE        35.5880   20.8640   26.9420 C.3   260  MET260      0.0692
    133  N         28.6020   23.8770   22.7120 N.3   263  ILE263     -0.1245
    134  CA        28.1320   24.6370   23.8650 C.3   263  ILE263      0.1561
    135  C         28.2520   26.1340   23.6010 C.2   263  ILE263      0.2260
    136  O         27.3920   26.9170   24.0040 O.2   263  ILE263     -0.2867
    137  CB        28.9280   24.2950   25.1350 C.3   263  ILE263      0.0252
    138  CG1       28.3640   25.0710   26.3200 C.3   263  ILE263      0.0019
    139  CG2       30.3970   24.6250   24.9370 C.3   263  ILE263      0.0019
    140  CD1       26.8850   24.8250   26.5590 C.3   263  ILE263      0.0001
    141  N         25.4550   27.4000   21.5840 N.3   266  TRP266     -0.1241
    142  CA        24.2850   27.5460   22.4340 C.3   266  TRP266      0.1605
    143  C         24.4200   28.8870   23.1410 C.2   266  TRP266      0.2264
    144  O         23.4540   29.6360   23.2730 O.2   266  TRP266     -0.2867
    145  CB        24.2280   26.4490   23.5020 C.3   266  TRP266      0.0550
    146  CG        23.6000   25.1520   23.0730 C.ar  266  TRP266      0.0003
    147  CD1       24.2410   23.9680   22.8220 C.ar  266  TRP266      0.0946
    148  CD2       22.2030   24.8910   22.9190 C.ar  266  TRP266      0.0152
    149  NE1       23.3260   22.9850   22.5290 N.ar  266  TRP266     -0.2442
    150  CE2       22.0670   23.5230   22.5810 C.ar  266  TRP266      0.0810
    151  CE3       21.0500   25.6760   23.0370 C.ar  266  TRP266      0.0012
    152  CZ2       20.8230   22.9250   22.3610 C.ar  266  TRP266      0.0191
    153  CZ3       19.8090   25.0820   22.8180 C.ar  266  TRP266      0.0001
    154  CH2       19.7090   23.7160   22.4840 C.ar  266  TRP266      0.0015
    155  N         22.0810   32.3120   22.8520 N.3   270  MET270     -0.1245
    156  CA        21.3070   32.5790   24.0610 C.3   270  MET270      0.1570
    157  C         21.3770   34.0650   24.4150 C.2   270  MET270      0.2261
    158  O         20.3750   34.6670   24.8020 O.2   270  MET270     -0.2867
    159  CB        21.8370   31.7330   25.2290 C.3   270  MET270      0.0387
    160  CG        21.1140   31.9400   26.5640 C.3   270  MET270      0.0595
    161  SD        19.3730   31.3970   26.6030 S.3   270  MET270     -0.1393
    162  CE        19.5650   29.6160   26.9070 C.3   270  MET270      0.0692
@<TRIPOS>BOND
     1   123   122    1
     2   124   122    1
     3   122   119    1
     4   141   142    1
     5   152   154   ar
     6   152   150   ar
     7   142   143    1
     8   142   145    1
     9   154   153   ar
    10   149   150   ar
    11   149   147   ar
    12   150   148   ar
    13   127   128    2
    14   127   126    1
    15   119   118    1
    16   119   120    1
    17   133   134    1
    18   153   151   ar
    19   147   146   ar
    20   155   156    1
    21   148   151   ar
    22   148   146   ar
    23   118   115   am
    24   120   125   am
    25   120   121    2
    26   146   145    1
    27   143   144    2
    28   125   126    1
    29   126   129    1
    30   135   134    1
    31   135   136    2
    32   129   130    1
    33   115   114    1
    34   115   116    2
    35   134   137    1
    36   108   107    2
    37   114   117    1
    38   114   113    1
    39   156   157    1
    40   156   159    1
    41   130   131    1
    42   157   158    2
    43   139   137    1
    44   112   110   am
    45   107   113   am
    46   107   106    1
    47   137   138    1
    48   101   103   ar
    49   101    99   ar
    50   159   160    1
    51    98    99    1
    52    98    95    1
    53   103   104   ar
    54   110   111    2
    55   110   109    1
    56    99   100   ar
    57   105   106    1
    58   105    96   am
    59    54    51    1
    60   131   132    1
    61   106   109    1
    62   138   140    1
    63   160   161    1
    64    95    96    1
    65    95    94    1
    66   161   162    1
    67   104   102   ar
    68    16    14    1
    69    96    97    2
    70   100   102   ar
    71    64    61    1
    72    51    52    1
    73    51    50    1
    74    52    53    2
    75    34    33   ar
    76    34    32   ar
    77    14    15    1
    78    14    13    1
    79    33    31   ar
    80    61    62    1
    81    61    60    1
    82    32    30   ar
    83    31    30   ar
    84    62    63    2
    85    13    10    1
    86    60    57   am
    87    30    29    1
    88    93    92    1
    89    49    47    1
    90    89    88    2
    91    29    26    1
    92    92    91    1
    93    57    58    2
    94    57    56    1
    95    59    56    1
    96    91    90    1
    97    69    70    1
    98    69    66    1
    99    10    11    1
   100    10     9    1
   101    47    46    1
   102    88    87    1
   103    67    68    2
   104    67    66    1
   105    11    12    2
   106    56    55    1
   107    71    70   ar
   108    71    73   ar
   109    24    23    1
   110    70    72   ar
   111    26    25    1
   112    26    27    1
   113     9     3   am
   114    66    65    1
   115    90    87    1
   116    48    46    1
   117    87    86    1
   118    46    43    1
   119     8     6    1
   120    23    22    1
   121    25    19   am
   122    41    39    1
   123    27    28    2
   124    73    74   ar
   125    72    75   ar
   126    72    74   ar
   127    86    81   am
   128     6     5    1
   129     6     7    1
   130     3     4    2
   131     3     2    1
   132    39    40    1
   133    39    36    1
   134    75    77   ar
   135    43    42    1
   136    43    44    1
   137    74    76   ar
   138    21    22    1
   139    21    18    1
   140     5     2    1
   141     1     2    1
   142    42    37   am
   143    19    20    2
   144    19    18    1
   145    79    80    1
   146    77    78   ar
   147    81    82    2
   148    81    80    1
   149    37    36    1
   150    37    38    2
   151    76    78   ar
   152    18    17    1
   153    36    35    1
   154    44    45    2
   155    80    83    1
   156    83    85    1
   157    83    84    1
