@<TRIPOS>MOLECULE
tmp/1s00A04.pdb
 131 125 0 0 0
SMALL
GASTEIGER

@<TRIPOS>ATOM
      1  N         64.1920  101.4580   42.2630 N.3   182  THR182     -0.1218
      2  CA        65.6050  101.7300   42.0940 C.3   182  THR182      0.1862
      3  C         65.7590  102.7610   40.9770 C.2   182  THR182      0.2287
      4  O         66.5260  103.7300   41.1120 O.2   182  THR182     -0.2866
      5  CB        66.3700  100.4330   41.7580 C.3   182  THR182      0.1770
      6  OG1       66.1010   99.4580   42.7750 O.3   182  THR182     -0.2211
      7  CG2       67.8600  100.6780   41.7000 C.3   182  THR182      0.0375
      8  N         64.8490  106.2150   41.9530 N.3   185  LEU185     -0.1231
      9  CA        65.9080  106.6040   42.8650 C.3   185  LEU185      0.1693
     10  C         67.1240  107.0370   42.0690 C.2   185  LEU185      0.2591
     11  O         67.7370  108.0680   42.3580 O.2   185  LEU185     -0.2718
     12  CB        66.2700  105.4210   43.7600 C.3   185  LEU185      0.0284
     13  CG        67.6020  105.4420   44.5040 C.3   185  LEU185      0.0019
     14  CD1       67.8260  106.7610   45.1690 C.3   185  LEU185      0.0001
     15  CD2       67.5830  104.3510   45.5280 C.3   185  LEU185      0.0001
     16  N         67.4810  106.2390   41.0730 N.am  186  ALA186     -0.1980
     17  CA        68.6370  106.5540   40.2350 C.3   186  ALA186      0.1597
     18  C         68.3690  107.8350   39.4750 C.2   186  ALA186      0.2287
     19  O         69.2350  108.7010   39.3680 O.2   186  ALA186     -0.2864
     20  CB        68.9100  105.4190   39.2600 C.3   186  ALA186      0.0319
     21  N         68.6450  110.7980   41.7760 N.3   189  LEU189     -0.1231
     22  CA        70.0330  110.9380   42.1030 C.3   189  LEU189      0.1693
     23  C         70.7540  111.5410   40.8960 C.2   189  LEU189      0.2592
     24  O         71.4310  112.5610   41.0280 O.2   189  LEU189     -0.2718
     25  CB        70.5800  109.5590   42.4700 C.3   189  LEU189      0.0284
     26  CG        71.1580  109.2740   43.8580 C.3   189  LEU189      0.0019
     27  CD1       70.5920  110.1940   44.9290 C.3   189  LEU189      0.0001
     28  CD2       70.8790  107.8160   44.1690 C.3   189  LEU189      0.0001
     29  N         70.5940  110.9350   39.7190 N.am  190  HIS190     -0.1976
     30  CA        71.2600  111.4520   38.5290 C.3   190  HIS190      0.1656
     31  C         70.8880  112.8940   38.2350 C.2   190  HIS190      0.2291
     32  O         71.7550  113.7540   38.1320 O.2   190  HIS190     -0.2864
     33  CB        70.9750  110.5900   37.2950 C.3   190  HIS190      0.0771
     34  CG        71.6080  111.1190   36.0460 C.ar  190  HIS190      0.0820
     35  ND1       72.9450  111.4230   35.9920 N.ar  190  HIS190     -0.2267
     36  CD2       71.0330  111.4320   34.8580 C.ar  190  HIS190      0.1154
     37  CE1       73.1540  111.9200   34.7860 C.ar  190  HIS190      0.1986
     38  NE2       72.0310  111.9470   34.0630 N.ar  190  HIS190     -0.2212
     39  N         72.5730  115.2270   40.7370 N.3   193  LEU193     -0.1245
     40  CA        74.0080  115.4140   40.6750 C.3   193  LEU193      0.1561
     41  C         74.3840  116.3800   39.5550 C.2   193  LEU193      0.2260
     42  O         75.1030  117.3710   39.7820 O.2   193  LEU193     -0.2867
     43  CB        74.7030  114.0670   40.4770 C.3   193  LEU193      0.0270
     44  CG        76.2180  114.0170   40.6810 C.3   193  LEU193      0.0019
     45  CD1       76.5740  114.5210   42.0700 C.3   193  LEU193      0.0001
     46  CD2       76.7010  112.6040   40.4920 C.3   193  LEU193      0.0001
     47  N         81.5140  115.5240   40.8750 N.3   212  GLU212     -0.1231
     48  CA        80.4180  114.5820   40.8840 C.3   212  GLU212      0.1699
     49  C         80.8970  113.2900   41.5010 C.2   212  GLU212      0.2592
     50  O         80.2840  112.7810   42.4400 O.2   212  GLU212     -0.2718
     51  CB        79.9010  114.3450   39.4700 C.3   212  GLU212      0.0402
     52  CG        79.1930  115.5530   38.8920 C.3   212  GLU212      0.1161
     53  CD        78.5340  115.2580   37.5640 C.2   212  GLU212      0.3649
     54  OE1       79.2600  115.0120   36.5730 O.co2 212  GLU212     -0.2457
     55  OE2       77.2870  115.2680   37.5200 O.co2 212  GLU212     -0.2457
     56  N         82.0040  112.7670   40.9850 N.am  213  ASN213     -0.1974
     57  CA        82.5600  111.5320   41.5200 C.3   213  ASN213      0.1688
     58  C         82.9000  111.7120   42.9890 C.2   213  ASN213      0.2292
     59  O         82.5810  110.8770   43.8090 O.2   213  ASN213     -0.2864
     60  CB        83.8430  111.1410   40.8030 C.3   213  ASN213      0.1181
     61  CG        83.6390  110.8550   39.3530 C.2   213  ASN213      0.2629
     62  OD1       82.6320  110.2700   38.9520 O.2   213  ASN213     -0.2716
     63  ND2       84.6150  111.2400   38.5440 N.am  213  ASN213     -0.0877
     64  N         79.7640  111.6660   45.3090 N.3   216  PHE216     -0.1241
     65  CA        79.1870  110.3780   45.5660 C.3   216  PHE216      0.1605
     66  C         80.0840  109.4040   46.3110 C.2   216  PHE216      0.2264
     67  O         79.6020  108.5330   47.0360 O.2   216  PHE216     -0.2867
     68  CB        78.6520  109.7620   44.2730 C.3   216  PHE216      0.0534
     69  CG        77.1490  109.7070   44.2350 C.ar  216  PHE216     -0.0203
     70  CD1       76.4050  110.8360   43.9200 C.ar  216  PHE216     -0.0042
     71  CD2       76.4770  108.5550   44.6160 C.ar  216  PHE216     -0.0042
     72  CE1       75.0160  110.8160   43.9940 C.ar  216  PHE216     -0.0003
     73  CE2       75.1000  108.5300   44.6900 C.ar  216  PHE216     -0.0003
     74  CZ        74.3680  109.6650   44.3800 C.ar  216  PHE216     -0.0000
     75  N         78.7870  107.7660   49.5020 N.3   220  VAL220     -0.1231
     76  CA        78.4750  106.3460   49.4490 C.3   220  VAL220      0.1692
     77  C         79.6670  105.4390   49.1930 C.2   220  VAL220      0.2593
     78  O         79.5490  104.2170   49.2260 O.2   220  VAL220     -0.2718
     79  CB        77.3730  106.1470   48.3730 C.3   220  VAL220      0.0266
     80  CG1       77.4630  104.7950   47.7420 C.3   220  VAL220      0.0020
     81  CG2       76.0190  106.3510   49.0040 C.3   220  VAL220      0.0020
     82  N         80.8230  106.0390   48.9490 N.am  221  GLY221     -0.1942
     83  CA        82.0130  105.2490   48.7040 C.3   221  GLY221      0.2014
     84  C         82.0980  104.7180   47.2880 C.2   221  GLY221      0.2639
     85  O         82.8800  103.8050   47.0180 O.2   221  GLY221     -0.2714
     86  N         81.2970  105.2830   46.3820 N.am  222  TYR222     -0.1959
     87  CA        81.3070  104.8610   44.9850 C.3   222  TYR222      0.1771
     88  C         80.6720  105.8760   44.0210 C.2   222  TYR222      0.2620
     89  O         79.8270  106.6860   44.3990 O.2   222  TYR222     -0.2715
     90  CB        80.6030  103.5060   44.8410 C.3   222  TYR222      0.0574
     91  CG        80.6060  102.9730   43.4220 C.ar  222  TYR222     -0.0198
     92  CD1       81.7910  102.5940   42.8080 C.ar  222  TYR222     -0.0009
     93  CD2       79.4280  102.9050   42.6770 C.ar  222  TYR222     -0.0009
     94  CE1       81.8100  102.1660   41.4850 C.ar  222  TYR222      0.0417
     95  CE2       79.4320  102.4830   41.3540 C.ar  222  TYR222      0.0417
     96  CZ        80.6280  102.1150   40.7590 C.ar  222  TYR222      0.1957
     97  OH        80.6530  101.7080   39.4360 O.3   222  TYR222     -0.2866
     98  N         81.1170  105.8480   42.7710 N.am  223  SER223     -0.1936
     99  CA        80.5680  106.7150   41.7410 C.3   223  SER223      0.2055
    100  C         80.5720  105.8690   40.5010 C.2   223  SER223      0.2643
    101  O         81.6240  105.4150   40.0700 O.2   223  SER223     -0.2714
    102  CB        81.4300  107.9370   41.5050 C.3   223  SER223      0.2130
    103  OG        80.9850  108.5930   40.3280 O.3   223  SER223     -0.2179
    104  N         79.3970  105.6430   39.9340 N.am  224  ILE224     -0.1963
    105  CA        79.2820  104.8110   38.7490 C.3   224  ILE224      0.1727
    106  C         79.8550  105.5070   37.4970 C.2   224  ILE224      0.2616
    107  O         80.2680  104.8460   36.5410 O.2   224  ILE224     -0.2715
    108  CB        77.7830  104.3760   38.5540 C.3   224  ILE224      0.0290
    109  CG1       77.7020  103.1200   37.6940 C.3   224  ILE224      0.0022
    110  CG2       76.9560  105.5090   37.9440 C.3   224  ILE224      0.0023
    111  CD1       76.3400  102.4750   37.7420 C.3   224  ILE224      0.0001
    112  N         79.9130  106.8350   37.5170 N.am  225  GLY225     -0.1955
    113  CA        80.4410  107.5460   36.3700 C.3   225  GLY225      0.1869
    114  C         79.3600  107.9360   35.3860 C.2   225  GLY225      0.2309
    115  O         78.3450  107.2490   35.2680 O.2   225  GLY225     -0.2863
    116  N         76.0350  105.8820   34.7440 N.3   229  ILE229     -0.1245
    117  CA        74.7300  106.2780   35.2600 C.3   229  ILE229      0.1561
    118  C         73.6210  106.2470   34.2220 C.2   229  ILE229      0.2260
    119  O         72.4580  105.9850   34.5540 O.2   229  ILE229     -0.2867
    120  CB        74.7460  107.6750   35.9070 C.3   229  ILE229      0.0252
    121  CG1       73.3790  107.9410   36.5400 C.3   229  ILE229      0.0019
    122  CG2       75.0730  108.7360   34.8850 C.3   229  ILE229      0.0019
    123  CD1       73.0060  106.9210   37.5690 C.3   229  ILE229      0.0001
    124  N         73.0480  102.6510   33.5050 N.3   232  LEU232     -0.1245
    125  CA        72.2280  102.1590   34.6140 C.3   232  LEU232      0.1561
    126  C         70.7530  102.5560   34.4630 C.2   232  LEU232      0.2260
    127  O         69.8710  101.7020   34.4960 O.2   232  LEU232     -0.2867
    128  CB        72.7630  102.7050   35.9380 C.3   232  LEU232      0.0270
    129  CG        72.0130  102.2510   37.1840 C.3   232  LEU232      0.0019
    130  CD1       72.1880  100.7630   37.3240 C.3   232  LEU232      0.0001
    131  CD2       72.5480  102.9710   38.4260 C.3   232  LEU232      0.0001
@<TRIPOS>BOND
     1   124   125    1
     2    38    37   ar
     3    38    36   ar
     4   118   119    2
     5   118   117    1
     6   126   127    2
     7   126   125    1
     8   125   128    1
     9   116   117    1
    10    37    35   ar
    11    36    34   ar
    12   122   120    1
    13   117   120    1
    14   115   114    2
    15   114   113    1
    16   120   121    1
    17   128   129    1
    18    35    34   ar
    19    34    33    1
    20   113   112    1
    21   121   123    1
    22   107   106    2
    23    54    53   ar
    24   129   130    1
    25   129   131    1
    26    33    30    1
    27   106   112   am
    28   106   105    1
    29    55    53   ar
    30    53    52    1
    31   109   111    1
    32   109   108    1
    33   110   108    1
    34    32    31    2
    35    31    30    1
    36    30    29    1
    37    63    61   am
    38   108   105    1
    39   105   104    1
    40    52    51    1
    41    62    61    2
    42    20    17    1
    43    61    60    1
    44    19    18    2
    45    97    96    1
    46    51    48    1
    47    18    17    1
    48    41    42    2
    49    41    40    1
    50    29    23   am
    51   104   100   am
    52   101   100    2
    53    17    16    1
    54   103   102    1
    55    43    40    1
    56    43    44    1
    57    46    44    1
    58   100    99    1
    59    40    39    1
    60    44    45    1
    61    96    95   ar
    62    96    94   ar
    63    60    57    1
    64    47    48    1
    65    48    49    1
    66    23    24    2
    67    23    22    1
    68     3     4    2
    69     3     2    1
    70    56    49   am
    71    56    57    1
    72    16    10   am
    73    95    93   ar
    74    94    92   ar
    75    49    50    2
    76   102    99    1
    77    57    58    1
    78     7     5    1
    79    99    98    1
    80     5     2    1
    81     5     6    1
    82    21    22    1
    83     8     9    1
    84    10    11    2
    85    10     9    1
    86     2     1    1
    87    22    25    1
    88    25    26    1
    89    93    91   ar
    90    98    88   am
    91    92    91   ar
    92     9    12    1
    93    58    59    2
    94    91    90    1
    95    12    13    1
    96    26    28    1
    97    26    27    1
    98    70    72   ar
    99    70    69   ar
   100    72    74   ar
   101    88    89    2
   102    88    87    1
   103    69    68    1
   104    69    71   ar
   105    68    65    1
   106    74    73   ar
   107    13    14    1
   108    13    15    1
   109    71    73   ar
   110    90    87    1
   111    87    86    1
   112    64    65    1
   113    65    66    1
   114    66    67    2
   115    86    84   am
   116    85    84    2
   117    84    83    1
   118    80    79    1
   119    79    81    1
   120    79    76    1
   121    83    82    1
   122    82    77   am
   123    77    78    2
   124    77    76    1
   125    76    75    1
