@<TRIPOS>MOLECULE
tmp/1s05A00.pdb
 236 224 0 0 0
SMALL
GASTEIGER

@<TRIPOS>ATOM
      1  N        -10.8250   -0.9050   -3.5680 N.3     8  THR8       -0.1203
      2  CA        -9.8330   -1.1100   -2.5270 C.3     8  THR8        0.1994
      3  C         -8.5700   -1.7430   -3.1110 C.2     8  THR8        0.2617
      4  O         -7.4580   -1.3120   -2.8090 O.2     8  THR8       -0.2717
      5  CB       -10.4760   -1.9460   -1.4180 C.3     8  THR8        0.1784
      6  OG1       -9.4120   -2.1840   -0.5010 O.3     8  THR8       -0.2211
      7  CG2      -10.8740   -3.3440   -1.8960 C.3     8  THR8        0.0376
      8  N         -8.7820   -2.7570   -3.9370 N.am    9  GLN9       -0.1979
      9  CA        -7.6730   -3.4560   -4.5660 C.3     9  GLN9        0.1601
     10  C         -6.7600   -2.4610   -5.2860 C.2     9  GLN9        0.2287
     11  O         -5.5410   -2.5070   -5.1280 O.2     9  GLN9       -0.2864
     12  CB        -8.1790   -4.5310   -5.5300 C.3     9  GLN9        0.0394
     13  CG        -8.3570   -5.8710   -4.8120 C.3     9  GLN9        0.0908
     14  CD        -7.0840   -6.7140   -4.9020 C.2     9  GLN9        0.2608
     15  OE1       -6.0750   -6.3040   -5.4520 O.2     9  GLN9       -0.2717
     16  NE2       -7.1880   -7.9120   -4.3330 N.am    9  GLN9       -0.0878
     17  N         -4.9710   -0.2470   -2.8070 N.3    12  MET12      -0.1230
     18  CA        -3.8300   -0.9390   -2.2330 C.3    12  MET12       0.1702
     19  C         -2.8030   -1.2920   -3.3110 C.2    12  MET12       0.2592
     20  O         -1.6030   -1.3180   -3.0450 O.2    12  MET12      -0.2718
     21  CB        -4.3030   -2.2170   -1.5380 C.3    12  MET12       0.0401
     22  CG        -3.1160   -3.0210   -1.0020 C.3    12  MET12       0.0596
     23  SD        -2.3540   -2.1520    0.3590 S.3    12  MET12      -0.1393
     24  CE        -3.7720   -1.9400    1.4230 C.3    12  MET12       0.0692
     25  N         -3.3130   -1.5570   -4.5040 N.am   13  LYS13      -0.1980
     26  CA        -2.4560   -1.9080   -5.6240 C.3    13  LYS13       0.1596
     27  C         -1.6780   -0.6700   -6.0720 C.2    13  LYS13       0.2287
     28  O         -0.5930   -0.7870   -6.6430 O.2    13  LYS13      -0.2864
     29  CB        -3.2730   -2.5580   -6.7410 C.3    13  LYS13       0.0298
     30  CG        -2.3740   -2.9780   -7.9060 C.3    13  LYS13       0.0038
     31  CD        -3.1410   -2.9460   -9.2300 C.3    13  LYS13       0.0206
     32  CE        -2.4990   -3.8800  -10.2580 C.3    13  LYS13       0.1093
     33  NZ        -2.8600   -3.4640  -11.6310 N.3    13  LYS13      -0.1314
     34  N         -0.3670    1.3730   -4.1510 N.3    15  ASN15      -0.1225
     35  CA         0.7830    1.4680   -3.2680 C.3    15  ASN15       0.1785
     36  C          2.0460    1.0740   -4.0380 C.2    15  ASN15       0.2597
     37  O          3.0930    1.7010   -3.8830 O.2    15  ASN15      -0.2718
     38  CB         0.6420    0.5220   -2.0750 C.3    15  ASN15       0.1169
     39  CG        -0.5040    0.9590   -1.1610 C.2    15  ASN15       0.2627
     40  OD1       -1.3890    0.1910   -0.8190 O.2    15  ASN15      -0.2716
     41  ND2       -0.4410    2.2340   -0.7850 N.am   15  ASN15      -0.0877
     42  N          1.9050    0.0370   -4.8500 N.am   16  GLY16      -0.1957
     43  CA         3.0210   -0.4480   -5.6440 C.3    16  GLY16       0.1869
     44  C          3.1930    0.3850   -6.9150 C.2    16  GLY16       0.2309
     45  O          4.3090    0.5510   -7.4070 O.2    16  GLY16      -0.2863
     46  N          4.9810    3.2840   -5.7980 N.3    19  MET19      -0.1245
     47  CA         6.3010    2.8600   -5.3610 C.3    19  MET19       0.1570
     48  C          7.1740    2.4670   -6.5540 C.2    19  MET19       0.2261
     49  O          8.3780    2.2670   -6.4090 O.2    19  MET19      -0.2867
     50  CB         6.1670    1.6670   -4.4120 C.3    19  MET19       0.0387
     51  CG         7.4640    1.4360   -3.6360 C.3    19  MET19       0.0595
     52  SD         7.5770   -0.2720   -3.1290 S.3    19  MET19      -0.1393
     53  CE         9.3170   -0.5620   -3.4000 C.3    19  MET19       0.0692
     54  N          9.9750    4.5660   -6.6640 N.3    22  LEU22      -0.1245
     55  CA        10.6330    4.3270   -5.3910 C.3    22  LEU22       0.1561
     56  C         11.3650    2.9840   -5.4430 C.2    22  LEU22       0.2260
     57  O         12.3560    2.7850   -4.7430 O.2    22  LEU22      -0.2867
     58  CB         9.6300    4.4370   -4.2410 C.3    22  LEU22       0.0270
     59  CG        10.0100    3.7120   -2.9490 C.3    22  LEU22       0.0019
     60  CD1       11.4710    3.9790   -2.5800 C.3    22  LEU22       0.0001
     61  CD2        9.0560    4.0820   -1.8110 C.3    22  LEU22       0.0001
     62  N          0.9840    7.6920   -0.0380 N.3    44  PHE44      -0.1241
     63  CA         0.9100    6.6640    0.9860 C.3    44  PHE44       0.1605
     64  C         -0.0350    7.0800    2.1140 C.2    44  PHE44       0.2264
     65  O         -0.6940    6.2360    2.7200 O.2    44  PHE44      -0.2867
     66  CB         2.3210    6.4970    1.5550 C.3    44  PHE44       0.0534
     67  CG         3.3260    5.9090    0.5640 C.ar   44  PHE44      -0.0203
     68  CD1        3.1070    4.6820    0.0180 C.ar   44  PHE44      -0.0042
     69  CD2        4.4410    6.6130    0.2270 C.ar   44  PHE44      -0.0042
     70  CE1        4.0410    4.1360   -0.9020 C.ar   44  PHE44      -0.0003
     71  CE2        5.3740    6.0660   -0.6940 C.ar   44  PHE44      -0.0003
     72  CZ         5.1540    4.8400   -1.2380 C.ar   44  PHE44      -0.0000
     73  N         -8.4090    3.8740    3.0800 N.3    51  LEU51      -0.1245
     74  CA        -8.3100    2.4240    3.0990 C.3    51  LEU51       0.1561
     75  C         -9.1780    1.8730    4.2320 C.2    51  LEU51       0.2260
     76  O         -9.9470    0.9350    4.0300 O.2    51  LEU51      -0.2867
     77  CB        -6.8450    1.9880    3.1790 C.3    51  LEU51       0.0270
     78  CG        -6.1650    1.6760    1.8440 C.3    51  LEU51       0.0019
     79  CD1       -4.6630    1.4620    2.0310 C.3    51  LEU51       0.0001
     80  CD2       -6.8330    0.4840    1.1550 C.3    51  LEU51       0.0001
     81  N        -13.8750   -1.6760    3.8470 N.3    55  PHE55      -0.1241
     82  CA       -13.6520   -3.0110    4.3770 C.3    55  PHE55       0.1605
     83  C        -14.9220   -3.5620    5.0280 C.2    55  PHE55       0.2264
     84  O        -14.9350   -3.8550    6.2230 O.2    55  PHE55      -0.2867
     85  CB       -12.5590   -2.8900    5.4410 C.3    55  PHE55       0.0534
     86  CG       -11.1370   -2.9070    4.8770 C.ar   55  PHE55      -0.0203
     87  CD1      -10.5460   -4.0890    4.5560 C.ar   55  PHE55      -0.0042
     88  CD2      -10.4640   -1.7390    4.6970 C.ar   55  PHE55      -0.0042
     89  CE1       -9.2260   -4.1040    4.0320 C.ar   55  PHE55      -0.0003
     90  CE2       -9.1430   -1.7530    4.1730 C.ar   55  PHE55      -0.0003
     91  CZ        -8.5530   -2.9350    3.8520 C.ar   55  PHE55      -0.0000
     92  N         -9.3420  -11.9030   -3.5260 N.3    69  TYR69      -0.1227
     93  CA        -8.8850  -10.9800   -2.5010 C.3    69  TYR69       0.1736
     94  C         -7.8380  -11.6380   -1.5980 C.2    69  TYR69       0.2596
     95  O         -7.6700  -12.8550   -1.6210 O.2    69  TYR69      -0.2718
     96  CB       -10.1180  -10.6360   -1.6630 C.3    69  TYR69       0.0548
     97  CG       -10.5950  -11.7750   -0.7590 C.ar   69  TYR69      -0.0200
     98  CD1      -11.3940  -12.7750   -1.2720 C.ar   69  TYR69      -0.0009
     99  CD2      -10.2240  -11.8000    0.5700 C.ar   69  TYR69      -0.0009
    100  CE1      -11.8410  -13.8470   -0.4210 C.ar   69  TYR69       0.0417
    101  CE2      -10.6720  -12.8720    1.4220 C.ar   69  TYR69       0.0417
    102  CZ       -11.4590  -13.8430    0.8840 C.ar   69  TYR69       0.1957
    103  OH       -11.8810  -14.8540    1.6880 O.3    69  TYR69      -0.2866
    104  N         -7.1620  -10.8010   -0.8240 N.am   70  SER70      -0.1938
    105  CA        -6.1360  -11.2860    0.0840 C.3    70  SER70       0.2055
    106  C         -6.1150  -10.4310    1.3520 C.2    70  SER70       0.2643
    107  O         -5.1670   -9.6800    1.5840 O.2    70  SER70      -0.2714
    108  CB        -4.7600  -11.2790   -0.5840 C.3    70  SER70       0.2130
    109  OG        -4.6940  -10.3460   -1.6610 O.3    70  SER70      -0.2179
    110  N         -7.1690  -10.5720    2.1420 N.am   71  SER71      -0.1949
    111  CA        -7.2830   -9.8220    3.3810 C.3    71  SER71       0.1924
    112  C         -7.9210  -10.6930    4.4640 C.2    71  SER71       0.2314
    113  O         -9.1250  -10.9490    4.4310 O.2    71  SER71      -0.2863
    114  CB        -8.1000   -8.5440    3.1780 C.3    71  SER71       0.2116
    115  OG        -9.4350   -8.8240    2.7650 O.3    71  SER71      -0.2180
    116  N         -8.9900   -8.6360   10.1160 N.3    75  ILE75      -0.1245
    117  CA        -8.9240   -7.2000    9.9110 C.3    75  ILE75       0.1561
    118  C        -10.1850   -6.5490   10.4820 C.2    75  ILE75       0.2260
    119  O        -10.1870   -5.3590   10.7950 O.2    75  ILE75      -0.2867
    120  CB        -8.6800   -6.8810    8.4350 C.3    75  ILE75       0.0252
    121  CG1       -7.2990   -7.3640    7.9900 C.3    75  ILE75       0.0019
    122  CG2       -8.8830   -5.3890    8.1550 C.3    75  ILE75       0.0019
    123  CD1       -7.2730   -7.6400    6.4850 C.3    75  ILE75       0.0001
    124  N         -5.6920   -2.5170   13.3910 N.3    82  PHE82      -0.1241
    125  CA        -5.5910   -2.3670   11.9500 C.3    82  PHE82       0.1605
    126  C         -5.4080   -0.8970   11.5630 C.2    82  PHE82       0.2264
    127  O         -4.5420   -0.5670   10.7550 O.2    82  PHE82      -0.2867
    128  CB        -6.9020   -2.8790   11.3520 C.3    82  PHE82       0.0534
    129  CG        -6.8290   -3.1770    9.8530 C.ar   82  PHE82      -0.0203
    130  CD1       -5.9410   -4.0960    9.3850 C.ar   82  PHE82      -0.0042
    131  CD2       -7.6510   -2.5240    8.9890 C.ar   82  PHE82      -0.0042
    132  CE1       -5.8740   -4.3730    7.9940 C.ar   82  PHE82      -0.0003
    133  CE2       -7.5830   -2.8000    7.5980 C.ar   82  PHE82      -0.0003
    134  CZ        -6.6960   -3.7190    7.1300 C.ar   82  PHE82      -0.0000
    135  N         -2.4080    0.8060   12.8020 N.3    85  GLU85      -0.1231
    136  CA        -1.3140    0.2970   11.9910 C.3    85  GLU85       0.1699
    137  C         -1.1380    1.1580   10.7380 C.2    85  GLU85       0.2592
    138  O         -0.0270    1.5800   10.4210 O.2    85  GLU85      -0.2718
    139  CB        -1.5440   -1.1690   11.6190 C.3    85  GLU85       0.0402
    140  CG        -0.5060   -2.0730   12.2880 C.3    85  GLU85       0.1161
    141  CD         0.9070   -1.7360   11.8070 C.2    85  GLU85       0.3649
    142  OE1        1.1650   -1.9600   10.6050 O.co2  85  GLU85      -0.2457
    143  OE2        1.6960   -1.2590   12.6520 O.co2  85  GLU85      -0.2457
    144  N         -2.2520    1.3940   10.0590 N.am   86  ILE86      -0.1980
    145  CA        -2.2340    2.1980    8.8490 C.3    86  ILE86       0.1595
    146  C         -2.2350    3.6800    9.2260 C.2    86  ILE86       0.2287
    147  O         -2.0860    4.5450    8.3630 O.2    86  ILE86      -0.2864
    148  CB        -3.3830    1.7960    7.9220 C.3    86  ILE86       0.0276
    149  CG1       -4.5300    2.8080    8.0020 C.3    86  ILE86       0.0022
    150  CG2       -3.8550    0.3720    8.2200 C.3    86  ILE86       0.0022
    151  CD1       -4.4450    3.8230    6.8600 C.3    86  ILE86       0.0001
    152  N          1.4250    4.6270    9.4970 N.3    89  PHE89      -0.1241
    153  CA         1.9010    4.5260    8.1290 C.3    89  PHE89       0.1605
    154  C          1.7880    5.8710    7.4090 C.2    89  PHE89       0.2264
    155  O          2.6220    6.2000    6.5670 O.2    89  PHE89      -0.2867
    156  CB         1.0090    3.5040    7.4190 C.3    89  PHE89       0.0534
    157  CG         1.2690    3.3890    5.9150 C.ar   89  PHE89      -0.0203
    158  CD1        2.3970    2.7750    5.4660 C.ar   89  PHE89      -0.0042
    159  CD2        0.3740    3.9010    5.0300 C.ar   89  PHE89      -0.0042
    160  CE1        2.6380    2.6680    4.0710 C.ar   89  PHE89      -0.0003
    161  CE2        0.6150    3.7930    3.6340 C.ar   89  PHE89      -0.0003
    162  CZ         1.7420    3.1800    3.1850 C.ar   89  PHE89      -0.0000
    163  N         12.2380    4.3640    4.1260 N.3   110  MET110     -0.1245
    164  CA        11.5050    3.1700    3.7420 C.3   110  MET110      0.1570
    165  C         11.5450    2.1200    4.8540 C.2   110  MET110      0.2261
    166  O         11.0600    1.0040    4.6780 O.2   110  MET110     -0.2867
    167  CB        12.1120    2.5840    2.4650 C.3   110  MET110      0.0387
    168  CG        11.6070    3.3280    1.2270 C.3   110  MET110      0.0595
    169  SD        10.2970    2.3970    0.4500 S.3   110  MET110     -0.1393
    170  CE        11.2460    1.4530   -0.7300 C.3   110  MET110      0.0692
    171  N          7.8830    3.4910    7.0560 N.3   113  ILE113     -0.1245
    172  CA         6.8000    3.4010    6.0910 C.3   113  ILE113      0.1561
    173  C          6.7400    1.9790    5.5300 C.2   113  ILE113      0.2260
    174  O          5.6600    1.4690    5.2370 O.2   113  ILE113     -0.2867
    175  CB         6.9500    4.4800    5.0160 C.3   113  ILE113      0.0252
    176  CG1        5.7050    4.5490    4.1310 C.3   113  ILE113      0.0019
    177  CG2        8.2250    4.2650    4.1980 C.3   113  ILE113      0.0019
    178  CD1        4.5700    5.2940    4.8360 C.3   113  ILE113      0.0001
    179  N          4.6590   -0.8070    7.9490 N.3   116  ALA116     -0.1231
    180  CA         3.2450   -1.0700    7.7460 C.3   116  ALA116      0.1694
    181  C          3.0430   -1.7180    6.3750 C.2   116  ALA116      0.2592
    182  O          1.9450   -2.1690    6.0530 O.2   116  ALA116     -0.2718
    183  CB         2.4550    0.2320    7.8970 C.3   116  ALA116      0.0304
    184  N          4.1190   -1.7440    5.6040 N.am  117  CYS117     -0.1970
    185  CA         4.0750   -2.3290    4.2750 C.3   117  CYS117      0.1712
    186  C          4.0320   -3.8520    4.4210 C.2   117  CYS117      0.2296
    187  O          3.0550   -4.4900    4.0320 O.2   117  CYS117     -0.2864
    188  CB         5.2540   -1.8720    3.4150 C.3   117  CYS117      0.0983
    189  SG         4.8480   -0.5880    2.1750 S.3   117  CYS117     -0.0798
    190  N          1.6910   -4.7910    7.7440 N.3   120  CYS120     -0.1221
    191  CA         0.2700   -4.8240    7.4420 C.3   120  CYS120      0.1808
    192  C          0.0030   -6.0070    6.5110 C.2   120  CYS120      0.2601
    193  O         -1.1470   -6.3840    6.2940 O.2   120  CYS120     -0.2717
    194  CB        -0.2100   -3.5020    6.8380 C.3   120  CYS120      0.0970
    195  SG        -2.0260   -3.2760    6.8320 S.3   120  CYS120     -0.0800
    196  N          1.0860   -6.5600    5.9840 N.am  121  HIS121     -0.1975
    197  CA         0.9830   -7.6940    5.0810 C.3   121  HIS121      0.1656
    198  C          0.9150   -8.9910    5.8900 C.2   121  HIS121      0.2291
    199  O         -0.1270   -9.6420    5.9390 O.2   121  HIS121     -0.2864
    200  CB         2.1300   -7.6880    4.0680 C.3   121  HIS121      0.0771
    201  CG         1.9760   -6.6580    2.9740 C.ar  121  HIS121      0.0820
    202  ND1        3.0440   -6.1930    2.2270 N.ar  121  HIS121     -0.2267
    203  CD2        0.8690   -6.0120    2.5080 C.ar  121  HIS121      0.1154
    204  CE1        2.5890   -5.3060    1.3550 C.ar  121  HIS121      0.1986
    205  NE2        1.2410   -5.1940    1.5300 N.ar  121  HIS121     -0.2212
    206  N         -1.9710   -8.6950    7.9710 N.3   124  PHE124     -0.1227
    207  CA        -3.2240   -8.7710    7.2390 C.3   124  PHE124      0.1736
    208  C         -2.9740   -8.9120    5.7360 C.2   124  PHE124      0.2595
    209  O         -3.2610   -7.9960    4.9670 O.2   124  PHE124     -0.2718
    210  CB        -3.9740   -7.4640    7.4990 C.3   124  PHE124      0.0547
    211  CG        -3.8250   -6.9330    8.9270 C.ar  124  PHE124     -0.0202
    212  CD1       -4.6280   -7.4090    9.9160 C.ar  124  PHE124     -0.0042
    213  CD2       -2.8890   -5.9860    9.2060 C.ar  124  PHE124     -0.0042
    214  CE1       -4.4900   -6.9180   11.2410 C.ar  124  PHE124     -0.0003
    215  CE2       -2.7510   -5.4940   10.5310 C.ar  124  PHE124     -0.0003
    216  CZ        -3.5540   -5.9700   11.5200 C.ar  124  PHE124     -0.0000
    217  N         -2.4400  -10.0670    5.3630 N.am  125  ARG125     -0.1980
    218  CA        -2.1480  -10.3380    3.9660 C.3   125  ARG125      0.1597
    219  C         -1.4930  -11.7130    3.8200 C.2   125  ARG125      0.2287
    220  O         -0.2680  -11.8240    3.8200 O.2   125  ARG125     -0.2864
    221  CB        -1.2200   -9.2730    3.3800 C.3   125  ARG125      0.0334
    222  CG        -1.0920   -9.4330    1.8630 C.3   125  ARG125      0.0492
    223  CD         0.3460   -9.7750    1.4680 C.3   125  ARG125      0.2205
    224  NE         0.8690   -8.7560    0.5320 N.pl3 125  ARG125     -0.0865
    225  CZ         2.1730   -8.5370    0.3120 C.cat 125  ARG125      0.5346
    226  NH1        3.0930   -9.2660    0.9590 N.pl3 125  ARG125      0.1354
    227  NH2        2.5580   -7.5900   -0.5550 N.pl3 125  ARG125      0.1354
    228  N         -0.5800  -13.8620    1.5190 N.3   127  LYS127     -0.1245
    229  CA        -0.2680  -14.0730    0.1150 C.3   127  LYS127      0.1561
    230  C         -0.1030  -15.5710   -0.1470 C.2   127  LYS127      0.2260
    231  O          0.6350  -16.2520    0.5620 O.2   127  LYS127     -0.2867
    232  CB         0.9480  -13.2390   -0.2940 C.3   127  LYS127      0.0271
    233  CG         0.6950  -12.5110   -1.6160 C.3   127  LYS127      0.0035
    234  CD         1.8090  -12.8010   -2.6230 C.3   127  LYS127      0.0206
    235  CE         1.3900  -12.3920   -4.0370 C.3   127  LYS127      0.1093
    236  NZ         2.4120  -11.5120   -4.6460 N.3   127  LYS127     -0.1314
@<TRIPOS>BOND
     1    33    32    1
     2    32    31    1
     3    31    30    1
     4    30    29    1
     5    45    44    2
     6    44    43    1
     7    29    26    1
     8    54    55    1
     9    28    27    2
    10    48    49    2
    11    48    47    1
    12    27    26    1
    13    46    47    1
    14    43    42    1
    15    26    25    1
    16    12    13    1
    17    12     9    1
    18    15    14    2
    19    56    55    1
    20    56    57    2
    21    55    58    1
    22    47    50    1
    23    10    11    2
    24    10     9    1
    25    14    13    1
    26    14    16   am
    27    42    36   am
    28   236   235    1
    29     9     8    1
    30    25    19   am
    31    50    51    1
    32    58    59    1
    33    34    35    1
    34    36    37    2
    35    36    35    1
    36   235   234    1
    37     8     3   am
    38    51    52    1
    39     1     2    1
    40    92    93    1
    41    53    52    1
    42    19    20    2
    43    19    18    1
    44    35    38    1
    45     3     4    2
    46     3     2    1
    47    59    60    1
    48    59    61    1
    49    17    18    1
    50   234   233    1
    51     2     5    1
    52    93    96    1
    53    93    94    1
    54    18    21    1
    55    38    39    1
    56     7     5    1
    57    96    97    1
    58   109   108    1
    59    95    94    2
    60   233   232    1
    61    94   104   am
    62    21    22    1
    63     5     6    1
    64    98    97   ar
    65    98   100   ar
    66    72    70   ar
    67    72    71   ar
    68    39    40    2
    69    39    41   am
    70    22    23    1
    71    70    68   ar
    72   104   105    1
    73    97    99   ar
    74   170   169    1
    75    71    69   ar
    76   108   105    1
    77   227   225    1
    78   100   102   ar
    79   232   229    1
    80   230   229    1
    81   230   231    2
    82    62    63    1
    83    68    67   ar
    84   105   106    1
    85   229   228    1
    86    69    67   ar
    87   225   224    2
    88   225   226    1
    89    23    24    1
    90   169   168    1
    91   224   223    1
    92    67    66    1
    93    99   101   ar
    94   102   101   ar
    95   102   103    1
    96    63    66    1
    97    63    64    1
    98    80    78    1
    99   168   167    1
   100   106   107    2
   101   106   110   am
   102   204   205   ar
   103   204   202   ar
   104   223   222    1
   105   205   203   ar
   106    78    79    1
   107    78    77    1
   108   222   221    1
   109    64    65    2
   110   110   111    1
   111   189   188    1
   112   202   201   ar
   113   167   164    1
   114   203   201   ar
   115   115   114    1
   116   201   200    1
   117    73    74    1
   118    74    77    1
   119    74    75    1
   120   114   111    1
   121   162   161   ar
   122   162   160   ar
   123   221   218    1
   124   111   112    1
   125   188   185    1
   126   161   159   ar
   127   164   163    1
   128   164   165    1
   129   220   219    2
   130   219   218    1
   131    81    82    1
   132    91    89   ar
   133    91    90   ar
   134   218   217    1
   135    76    75    2
   136   187   186    2
   137    89    87   ar
   138   200   197    1
   139   160   158   ar
   140   176   178    1
   141   176   175    1
   142    90    88   ar
   143   177   175    1
   144   185   186    1
   145   185   184    1
   146    82    83    1
   147    82    85    1
   148   113   112    2
   149    87    86   ar
   150   166   165    2
   151    88    86   ar
   152    86    85    1
   153   209   208    2
   154   175   172    1
   155    83    84    2
   156   159   157   ar
   157   197   198    1
   158   197   196    1
   159   174   173    2
   160   217   208   am
   161   158   157   ar
   162   173   172    1
   163   184   181   am
   164   208   207    1
   165   198   199    2
   166   157   156    1
   167   196   192   am
   168   182   181    2
   169   172   171    1
   170   193   192    2
   171   181   180    1
   172   123   121    1
   173   192   191    1
   174   155   154    2
   175   195   194    1
   176   194   191    1
   177   151   149    1
   178   134   133   ar
   179   134   132   ar
   180   207   210    1
   181   207   206    1
   182   154   153    1
   183   156   153    1
   184   191   190    1
   185   210   211    1
   186   133   131   ar
   187   180   183    1
   188   180   179    1
   189   148   149    1
   190   148   150    1
   191   148   145    1
   192   121   120    1
   193   132   130   ar
   194   153   152    1
   195   122   120    1
   196   147   146    2
   197   120   117    1
   198   145   146    1
   199   145   144    1
   200   211   213   ar
   201   211   212   ar
   202   131   129   ar
   203   213   215   ar
   204   130   129   ar
   205   129   128    1
   206   117   116    1
   207   117   118    1
   208   212   214   ar
   209   144   137   am
   210   138   137    2
   211   118   119    2
   212   215   216   ar
   213   142   141   ar
   214   137   136    1
   215   127   126    2
   216   214   216   ar
   217   128   125    1
   218   126   125    1
   219   139   136    1
   220   139   140    1
   221   141   140    1
   222   141   143   ar
   223   125   124    1
   224   136   135    1
