@<TRIPOS>MOLECULE
tmp/1s0iA00.pdb
 251 243 0 0 0
SMALL
GASTEIGER

@<TRIPOS>ATOM
      1  N         13.8110  -12.5490  -14.6810 N.3    35  ARG35      -0.1231
      2  CA        12.9230  -12.2490  -13.5510 C.3    35  ARG35       0.1694
      3  C         13.7340  -11.8000  -12.3310 C.2    35  ARG35       0.2591
      4  O         14.9520  -11.7610  -12.3690 O.2    35  ARG35      -0.2718
      5  CB        12.1420  -13.5170  -13.1740 C.3    35  ARG35       0.0321
      6  CG        11.0770  -13.9080  -14.2100 C.3    35  ARG35       0.0489
      7  CD         9.8610  -14.6120  -13.6050 C.3    35  ARG35       0.2205
      8  NE         9.2850  -13.7180  -12.5830 N.pl3  35  ARG35      -0.0865
      9  CZ         8.4500  -14.1000  -11.6340 C.cat  35  ARG35       0.5346
     10  NH1        7.9920  -13.1860  -10.7760 N.pl3  35  ARG35       0.1354
     11  NH2        8.0120  -15.3630  -11.5590 N.pl3  35  ARG35       0.1354
     12  N         13.0380  -11.4230  -11.2680 N.am   36  LEU36      -0.1980
     13  CA        13.6890  -11.1750   -9.9600 C.3    36  LEU36       0.1596
     14  C         14.6330   -9.9770  -10.0230 C.2    36  LEU36       0.2287
     15  O         15.8090  -10.0450   -9.6230 O.2    36  LEU36      -0.2864
     16  CB        14.4040  -12.4420   -9.4300 C.3    36  LEU36       0.0297
     17  CG        13.5610  -13.4490   -8.6240 C.3    36  LEU36       0.0022
     18  CD1       13.4000  -12.9290   -7.1890 C.3    36  LEU36       0.0001
     19  CD2       12.1870  -13.7000   -9.2600 C.3    36  LEU36       0.0001
     20  N         16.6530  -17.1010  -16.7250 N.3    53  ARG53      -0.1245
     21  CA        15.9590  -18.3890  -16.8180 C.3    53  ARG53       0.1563
     22  C         16.1020  -18.7970  -18.2780 C.2    53  ARG53       0.2260
     23  O         15.3710  -18.3380  -19.1760 O.2    53  ARG53      -0.2867
     24  CB        14.5000  -18.2720  -16.3760 C.3    53  ARG53       0.0307
     25  CG        14.3360  -17.5620  -14.9970 C.3    53  ARG53       0.0489
     26  CD        13.0320  -17.8810  -14.3480 C.3    53  ARG53       0.2205
     27  NE        12.9660  -17.2480  -13.0250 N.pl3  53  ARG53      -0.0865
     28  CZ        11.9430  -17.3720  -12.2180 C.cat  53  ARG53       0.5346
     29  NH1       10.8870  -18.1060  -12.5890 N.pl3  53  ARG53       0.1354
     30  NH2       12.0010  -16.7890  -11.0090 N.pl3  53  ARG53       0.1354
     31  N         10.2280  -19.9050  -18.1350 N.3    57  SER57      -0.1202
     32  CA        10.0610  -19.0630  -16.9530 C.3    57  SER57       0.2020
     33  C          9.6230  -19.9050  -15.7490 C.2    57  SER57       0.2619
     34  O          9.5390  -19.3620  -14.6380 O.2    57  SER57      -0.2717
     35  CB         9.0280  -17.9870  -17.2100 C.3    57  SER57       0.2103
     36  OG         7.7980  -18.6070  -17.5430 O.3    57  SER57      -0.2182
     37  N          9.3450  -21.1880  -15.9450 N.am   58  PHE58      -0.1961
     38  CA         8.9910  -22.0880  -14.8470 C.3    58  PHE58       0.1771
     39  C         10.0560  -21.9600  -13.7450 C.2    58  PHE58       0.2619
     40  O         11.2620  -21.9510  -13.9960 O.2    58  PHE58      -0.2715
     41  CB         8.9490  -23.5290  -15.3760 C.3    58  PHE58       0.0574
     42  CG         8.5990  -24.5770  -14.3470 C.ar   58  PHE58      -0.0200
     43  CD1        7.4740  -24.4690  -13.5300 C.ar   58  PHE58      -0.0042
     44  CD2        9.4140  -25.6700  -14.2220 C.ar   58  PHE58      -0.0042
     45  CE1        7.1520  -25.4880  -12.5910 C.ar   58  PHE58      -0.0003
     46  CE2        9.1120  -26.6870  -13.2980 C.ar   58  PHE58      -0.0003
     47  CZ         8.0110  -26.6060  -12.4950 C.ar   58  PHE58      -0.0000
     48  N          9.5900  -21.8770  -12.5010 N.am   59  ALA59      -0.1963
     49  CA        10.5220  -21.6460  -11.4090 C.3    59  ALA59       0.1728
     50  C         11.6350  -22.7070  -11.3000 C.2    59  ALA59       0.2616
     51  O         12.7770  -22.4150  -10.9120 O.2    59  ALA59      -0.2715
     52  CB         9.7430  -21.6160  -10.0930 C.3    59  ALA59       0.0334
     53  N         11.2740  -23.9600  -11.5530 N.am   60  ASN60      -0.1972
     54  CA        12.1680  -25.0600  -11.2390 C.3    60  ASN60       0.1688
     55  C         12.8500  -25.5540  -12.4860 C.2    60  ASN60       0.2292
     56  O         12.5580  -26.6340  -13.0000 O.2    60  ASN60      -0.2864
     57  CB        11.3770  -26.1470  -10.4990 C.3    60  ASN60       0.1181
     58  CG        10.5670  -25.5330   -9.3680 C.2    60  ASN60       0.2629
     59  OD1       11.1050  -24.7300   -8.6150 O.2    60  ASN60      -0.2716
     60  ND2        9.2780  -25.8130   -9.3150 N.am   60  ASN60      -0.0877
     61  N         19.7740  -24.6930  -10.4620 N.3    93  ARG93      -0.1245
     62  CA        19.4310  -23.2640  -10.4290 C.3    93  ARG93       0.1563
     63  C         19.8930  -22.5870   -9.1690 C.2    93  ARG93       0.2260
     64  O         19.9380  -23.1940   -8.1060 O.2    93  ARG93      -0.2867
     65  CB        17.8990  -23.0760  -10.5370 C.3    93  ARG93       0.0307
     66  CG        17.1010  -23.9260   -9.5500 C.3    93  ARG93       0.0489
     67  CD        15.6150  -23.8900   -9.8330 C.3    93  ARG93       0.2205
     68  NE        14.8420  -24.6230   -8.8180 N.pl3  93  ARG93      -0.0865
     69  CZ        14.6520  -25.9260   -8.8570 C.cat  93  ARG93       0.5346
     70  NH1       15.2060  -26.6510   -9.8520 N.pl3  93  ARG93       0.1354
     71  NH2       13.9420  -26.5060   -7.8920 N.pl3  93  ARG93       0.1354
     72  N         18.6570  -19.2510   -7.1750 N.3    95  VAL95      -0.1231
     73  CA        17.3620  -18.5950   -7.2470 C.3    95  VAL95       0.1692
     74  C         17.1520  -17.4230   -6.3100 C.2    95  VAL95       0.2592
     75  O         17.7690  -17.3400   -5.2370 O.2    95  VAL95      -0.2718
     76  CB        16.2340  -19.6100   -6.9390 C.3    95  VAL95       0.0266
     77  CG1       16.2810  -20.7760   -7.9140 C.3    95  VAL95       0.0020
     78  CG2       16.3190  -20.1240   -5.5240 C.3    95  VAL95       0.0020
     79  N         16.2500  -16.5430   -6.7410 N.am   96  ASP96      -0.1974
     80  CA        15.7500  -15.4150   -5.9510 C.3    96  ASP96       0.1709
     81  C         16.8530  -14.6000   -5.2980 C.2    96  ASP96       0.2293
     82  O         16.8680  -14.3880   -4.0800 O.2    96  ASP96      -0.2864
     83  CB        14.7360  -15.9290   -4.9130 C.3    96  ASP96       0.1436
     84  CG        13.4940  -16.5230   -5.5880 C.2    96  ASP96       0.3671
     85  OD1       12.6080  -17.0680   -4.8720 O.co2  96  ASP96      -0.2456
     86  OD2       13.3220  -16.4680   -6.8410 O.co2  96  ASP96      -0.2456
     87  N         19.4330  -25.1670   -6.0020 N.3   113  TYR113     -0.1241
     88  CA        18.7480  -26.4650   -6.1210 C.3   113  TYR113      0.1605
     89  C         19.4320  -27.2560   -7.2010 C.2   113  TYR113      0.2264
     90  O         19.8480  -26.6890   -8.2110 O.2   113  TYR113     -0.2867
     91  CB        17.2710  -26.2750   -6.4360 C.3   113  TYR113      0.0534
     92  CG        16.5610  -25.6450   -5.2620 C.ar  113  TYR113     -0.0201
     93  CD1       16.4860  -24.2660   -5.1550 C.ar  113  TYR113     -0.0009
     94  CD2       16.0260  -26.4320   -4.2450 C.ar  113  TYR113     -0.0009
     95  CE1       15.8700  -23.6580   -4.0710 C.ar  113  TYR113      0.0417
     96  CE2       15.4050  -25.8320   -3.1180 C.ar  113  TYR113      0.0417
     97  CZ        15.3370  -24.4580   -3.0540 C.ar  113  TYR113      0.1957
     98  OH        14.7700  -23.8140   -1.9790 O.3   113  TYR113     -0.2866
     99  N          8.1160  -27.0300   -6.3630 N.3   119  TYR119     -0.1227
    100  CA         8.2650  -25.7200   -5.6980 C.3   119  TYR119      0.1736
    101  C          8.8320  -25.9000   -4.3020 C.2   119  TYR119      0.2595
    102  O          8.5080  -26.8490   -3.5900 O.2   119  TYR119     -0.2718
    103  CB         6.9200  -24.9920   -5.6670 C.3   119  TYR119      0.0548
    104  CG         6.4780  -24.5560   -7.0310 C.ar  119  TYR119     -0.0200
    105  CD1        5.5400  -25.2900   -7.7480 C.ar  119  TYR119     -0.0009
    106  CD2        7.0390  -23.4210   -7.6320 C.ar  119  TYR119     -0.0009
    107  CE1        5.1580  -24.8750   -9.0050 C.ar  119  TYR119      0.0417
    108  CE2        6.6290  -23.0030   -8.8870 C.ar  119  TYR119      0.0417
    109  CZ         5.7150  -23.7480   -9.5650 C.ar  119  TYR119      0.1957
    110  OH         5.3020  -23.3630  -10.8450 O.3   119  TYR119     -0.2866
    111  N          9.6850  -24.9690   -3.8980 N.am  120  TRP120     -0.1962
    112  CA        10.4580  -25.1880   -2.6920 C.3   120  TRP120      0.1771
    113  C          9.6710  -25.4360   -1.4160 C.2   120  TRP120      0.2620
    114  O         10.0890  -26.2340   -0.5800 O.2   120  TRP120     -0.2715
    115  CB        11.4790  -24.0690   -2.5370 C.3   120  TRP120      0.0590
    116  CG        10.9200  -22.7490   -1.9740 C.ar  120  TRP120      0.0006
    117  CD1       10.0840  -21.8760   -2.5880 C.ar  120  TRP120      0.0946
    118  CD2       11.2350  -22.1920   -0.7050 C.ar  120  TRP120      0.0152
    119  NE1        9.8520  -20.7940   -1.7700 N.ar  120  TRP120     -0.2442
    120  CE2       10.5420  -20.9750   -0.5940 C.ar  120  TRP120      0.0810
    121  CE3       12.0180  -22.6220    0.3770 C.ar  120  TRP120      0.0012
    122  CZ2       10.6220  -20.1410    0.5440 C.ar  120  TRP120      0.0191
    123  CZ3       12.1010  -21.8010    1.5080 C.ar  120  TRP120      0.0001
    124  CH2       11.4030  -20.5670    1.5770 C.ar  120  TRP120      0.0015
    125  N          8.5220  -24.7820   -1.2420 N.am  121  THR121     -0.1951
    126  CA         7.8100  -24.9810    0.0280 C.3   121  THR121      0.1897
    127  C          7.0780  -26.3090    0.0500 C.2   121  THR121      0.2313
    128  O          6.5390  -26.7180    1.0850 O.2   121  THR121     -0.2863
    129  CB         6.8480  -23.8330    0.3790 C.3   121  THR121      0.1794
    130  OG1        5.7890  -23.7880   -0.5950 O.3   121  THR121     -0.2208
    131  CG2        7.5800  -22.5000    0.2950 C.3   121  THR121      0.0378
    132  N         15.5410  -18.9920    2.0500 N.3   176  LEU176     -0.1245
    133  CA        15.9410  -18.1430    0.9270 C.3   176  LEU176      0.1561
    134  C         15.9460  -16.7050    1.3400 C.2   176  LEU176      0.2260
    135  O         15.3020  -16.3060    2.3200 O.2   176  LEU176     -0.2867
    136  CB        14.9380  -18.2770   -0.2260 C.3   176  LEU176      0.0270
    137  CG        14.7130  -19.6720   -0.7760 C.3   176  LEU176      0.0019
    138  CD1       13.5950  -19.5570   -1.8180 C.3   176  LEU176      0.0001
    139  CD2       15.9960  -20.2020   -1.3870 C.3   176  LEU176      0.0001
    140  N         13.0710  -15.7950    4.1090 N.3   195  GLN195     -0.1245
    141  CA        11.8690  -16.6240    4.2560 C.3   195  GLN195      0.1566
    142  C         12.3540  -18.0400    4.4990 C.2   195  GLN195      0.2260
    143  O         13.2710  -18.5580    3.8230 O.2   195  GLN195     -0.2867
    144  CB        11.0290  -16.5350    2.9660 C.3   195  GLN195      0.0367
    145  CG        11.8470  -16.6710    1.6720 C.3   195  GLN195      0.0905
    146  CD        11.0610  -16.3530    0.3950 C.2   195  GLN195      0.2608
    147  OE1        9.8400  -16.5320    0.3410 O.2   195  GLN195     -0.2717
    148  NE2       11.7690  -15.9270   -0.6350 N.am  195  GLN195     -0.0878
    149  N          5.9530  -14.6000    3.4400 N.3   229  SER229     -0.1202
    150  CA         7.1060  -14.9740    2.6080 C.3   229  SER229      0.2020
    151  C          7.6960  -13.6990    1.9900 C.2   229  SER229      0.2618
    152  O          7.2420  -12.5910    2.2980 O.2   229  SER229     -0.2717
    153  CB         6.6400  -15.9580    1.5190 C.3   229  SER229      0.2103
    154  OG         5.7320  -15.2420    0.6820 O.3   229  SER229     -0.2182
    155  N          8.7020  -13.8440    1.1280 N.am  230  GLU230     -0.1979
    156  CA         9.3780  -12.7050    0.4810 C.3   230  GLU230      0.1602
    157  C          9.4200  -11.4200    1.2910 C.2   230  GLU230      0.2287
    158  O          8.9260  -10.3700    0.8410 O.2   230  GLU230     -0.2864
    159  CB         8.8010  -12.4360   -0.9090 C.3   230  GLU230      0.0415
    160  CG         9.2550  -13.5210   -1.8780 C.3   230  GLU230      0.1163
    161  CD         8.7100  -13.3330   -3.2570 C.2   230  GLU230      0.3649
    162  OE1        7.7530  -12.5190   -3.4370 O.co2 230  GLU230     -0.2457
    163  OE2        9.2380  -14.0330   -4.1690 O.co2 230  GLU230     -0.2457
    164  N          5.1260  -10.4440    2.0910 N.3   245  ARG245     -0.1245
    165  CA         4.1650  -11.0270    1.1810 C.3   245  ARG245      0.1563
    166  C          3.3240  -12.0470    1.9350 C.2   245  ARG245      0.2260
    167  O          3.8710  -12.9460    2.6160 O.2   245  ARG245     -0.2867
    168  CB         4.9030  -11.7210    0.0390 C.3   245  ARG245      0.0307
    169  CG         3.9910  -12.5430   -0.8950 C.3   245  ARG245      0.0489
    170  CD         4.8340  -13.0320   -2.0870 C.3   245  ARG245      0.2205
    171  NE         4.0710  -13.9950   -2.8820 N.pl3 245  ARG245     -0.0865
    172  CZ         4.5170  -14.4620   -4.0450 C.cat 245  ARG245      0.5346
    173  NH1        5.6610  -14.0260   -4.5340 N.pl3 245  ARG245      0.1354
    174  NH2        3.8070  -15.3820   -4.7080 N.pl3 245  ARG245      0.1354
    175  N          0.4100  -14.6030    0.6890 N.3   247  ASP247     -0.1239
    176  CA        -0.4470  -15.0250   -0.4110 C.3   247  ASP247      0.1674
    177  C         -1.8880  -15.1040    0.0840 C.2   247  ASP247      0.2266
    178  O         -2.1570  -15.6110    1.1700 O.2   247  ASP247     -0.2867
    179  CB         0.0040  -16.3650   -0.9760 C.3   247  ASP247      0.1410
    180  CG         1.3160  -16.2710   -1.7340 C.2   247  ASP247      0.3668
    181  OD1        2.1010  -17.2610   -1.7000 O.co2 247  ASP247     -0.2456
    182  OD2        1.6020  -15.2690   -2.4150 O.co2 247  ASP247     -0.2456
    183  N         -4.6550  -14.3670   -9.8910 N.3   311  ARG311     -0.1231
    184  CA        -3.6120  -15.3780   -9.9360 C.3   311  ARG311      0.1694
    185  C         -2.2630  -14.6990   -9.8740 C.2   311  ARG311      0.2592
    186  O         -2.0850  -13.7630   -9.0730 O.2   311  ARG311     -0.2718
    187  CB        -3.8120  -16.2830  -11.1570 C.3   311  ARG311      0.0321
    188  CG        -5.0630  -17.1360  -10.9280 C.3   311  ARG311      0.0489
    189  CD        -5.3710  -18.0860  -12.0990 C.3   311  ARG311      0.2205
    190  NE        -4.3170  -19.0920  -12.2460 N.pl3 311  ARG311     -0.0865
    191  CZ        -4.1980  -20.1950  -11.5060 C.cat 311  ARG311      0.5346
    192  NH1       -5.0860  -20.4690  -10.5520 N.pl3 311  ARG311      0.1354
    193  NH2       -3.1910  -21.0310  -11.7260 N.pl3 311  ARG311      0.1354
    194  N         -1.3020  -15.1470  -10.6680 N.am  312  TRP312     -0.1976
    195  CA         0.0210  -14.5580  -10.6290 C.3   312  TRP312      0.1640
    196  C          0.2390  -13.5410  -11.7240 C.2   312  TRP312      0.2290
    197  O          1.3560  -13.0340  -11.9010 O.2   312  TRP312     -0.2864
    198  CB         1.1110  -15.6600  -10.6890 C.3   312  TRP312      0.0576
    199  CG         1.1650  -16.4890   -9.4020 C.ar  312  TRP312      0.0006
    200  CD1        1.9980  -16.2880   -8.3230 C.ar  312  TRP312      0.0946
    201  CD2        0.3150  -17.5920   -9.0470 C.ar  312  TRP312      0.0152
    202  NE1        1.7340  -17.2250   -7.3450 N.ar  312  TRP312     -0.2442
    203  CE2        0.7140  -18.0410   -7.7710 C.ar  312  TRP312      0.0810
    204  CE3       -0.7120  -18.2760   -9.7010 C.ar  312  TRP312      0.0012
    205  CZ2        0.0960  -19.1190   -7.1130 C.ar  312  TRP312      0.0191
    206  CZ3       -1.3230  -19.3640   -9.0460 C.ar  312  TRP312      0.0001
    207  CH2       -0.9140  -19.7690   -7.7680 C.ar  312  TRP312      0.0015
    208  N         -0.6620  -10.3280  -12.0060 N.3   314  ARG314     -0.1245
    209  CA        -0.0520   -9.1950  -11.3070 C.3   314  ARG314      0.1563
    210  C          0.2490   -7.9830  -12.1780 C.2   314  ARG314      0.2260
    211  O          1.3370   -7.4390  -12.2220 O.2   314  ARG314     -0.2867
    212  CB         1.1660   -9.7150  -10.5230 C.3   314  ARG314      0.0307
    213  CG         0.6650  -10.5670   -9.3310 C.3   314  ARG314      0.0489
    214  CD         1.7420  -11.2780   -8.5330 C.3   314  ARG314      0.2205
    215  NE         2.4930  -12.1560   -9.4200 N.pl3 314  ARG314     -0.0865
    216  CZ         3.4790  -12.9480   -9.0330 C.cat 314  ARG314      0.5346
    217  NH1        3.8530  -12.9990   -7.7380 N.pl3 314  ARG314      0.1354
    218  NH2        4.0960  -13.6840   -9.9540 N.pl3 314  ARG314      0.1354
    219  N          7.2700   -8.1990  -10.2860 N.3   342  TYR342     -0.1241
    220  CA         8.3950   -7.8470   -9.4190 C.3   342  TYR342      0.1605
    221  C          9.1000   -6.5690   -9.8740 C.2   342  TYR342      0.2264
    222  O          9.0820   -6.2240  -11.0470 O.2   342  TYR342     -0.2867
    223  CB         9.3990   -9.0130   -9.3810 C.3   342  TYR342      0.0534
    224  CG         8.9350  -10.2050   -8.5660 C.ar  342  TYR342     -0.0201
    225  CD1        7.5920  -10.5370   -8.4140 C.ar  342  TYR342     -0.0009
    226  CD2        9.8870  -11.0450   -8.0100 C.ar  342  TYR342     -0.0009
    227  CE1        7.2120  -11.6770   -7.6750 C.ar  342  TYR342      0.0417
    228  CE2        9.5520  -12.1460   -7.2670 C.ar  342  TYR342      0.0417
    229  CZ         8.2170  -12.4810   -7.1080 C.ar  342  TYR342      0.1957
    230  OH         7.9040  -13.6030   -6.3480 O.3   342  TYR342     -0.2866
    231  N          3.8240  -15.7420  -20.0850 N.3   362  GLU362     -0.1245
    232  CA         4.8470  -16.3680  -19.2530 C.3   362  GLU362      0.1567
    233  C          6.2580  -16.2870  -19.8680 C.2   362  GLU362      0.2260
    234  O          7.1020  -17.1490  -19.6620 O.2   362  GLU362     -0.2867
    235  CB         4.4410  -17.7930  -18.8020 C.3   362  GLU362      0.0388
    236  CG         3.1340  -17.8370  -18.0250 C.3   362  GLU362      0.1160
    237  CD         3.1530  -16.8840  -16.8390 C.2   362  GLU362      0.3649
    238  OE1        4.1260  -16.9410  -16.0660 O.co2 362  GLU362     -0.2457
    239  OE2        2.2080  -16.0800  -16.6980 O.co2 362  GLU362     -0.2457
    240  N          9.1240  -13.4230  -19.7470 N.3   364  TYR364     -0.1241
    241  CA         9.3930  -12.2210  -18.9700 C.3   364  TYR364      0.1605
    242  C         10.6190  -11.4230  -19.4060 C.2   364  TYR364      0.2264
    243  O         11.7170  -11.9830  -19.6000 O.2   364  TYR364     -0.2867
    244  CB         9.6360  -12.6090  -17.4950 C.3   364  TYR364      0.0534
    245  CG         8.4950  -13.2850  -16.7650 C.ar  364  TYR364     -0.0201
    246  CD1        8.0690  -14.5580  -17.1170 C.ar  364  TYR364     -0.0009
    247  CD2        7.8540  -12.6430  -15.7070 C.ar  364  TYR364     -0.0009
    248  CE1        7.0360  -15.1980  -16.4320 C.ar  364  TYR364      0.0417
    249  CE2        6.8320  -13.2780  -14.9870 C.ar  364  TYR364      0.0417
    250  CZ         6.4110  -14.5310  -15.3600 C.ar  364  TYR364      0.1957
    251  OH         5.4040  -15.1710  -14.6890 O.3   364  TYR364     -0.2866
@<TRIPOS>BOND
     1   231   232    1
     2   233   234    2
     3   233   232    1
     4   240   241    1
     5   243   242    2
     6   242   241    1
     7   232   235    1
     8    23    22    2
     9   241   244    1
    10   235   236    1
    11    22    21    1
    12    31    32    1
    13   236   237    1
    14    36    35    1
    15   244   245    1
    16    35    32    1
    17   246   245   ar
    18   246   248   ar
    19    32    33    1
    20   237   239   ar
    21   237   238   ar
    22    21    20    1
    23    21    24    1
    24   245   247   ar
    25   248   250   ar
    26    24    25    1
    27    37    33   am
    28    37    38    1
    29    33    34    2
    30   247   249   ar
    31    41    38    1
    32    41    42    1
    33   250   249   ar
    34   250   251    1
    35    25    26    1
    36    38    39    1
    37     1     2    1
    38    26    27    1
    39    42    44   ar
    40    42    43   ar
    41    44    46   ar
    42     6     7    1
    43     6     5    1
    44    40    39    2
    45    39    48   am
    46     7     8    1
    47     2     5    1
    48     2     3    1
    49    43    45   ar
    50    46    47   ar
    51    27    28    2
    52    56    55    2
    53    45    47   ar
    54    29    28    1
    55     8     9    2
    56    48    49    1
    57    55    54    1
    58     4     3    2
    59     3    12   am
    60   190   189    1
    61   190   191    2
    62   211   210    2
    63    28    30    1
    64   210   209    1
    65   189   188    1
    66   208   209    1
    67   197   196    2
    68   193   191    1
    69   196   195    1
    70     9    11    1
    71     9    10    1
    72    53    50   am
    73    53    54    1
    74   191   192    1
    75    49    50    1
    76    49    52    1
    77   209   212    1
    78    50    51    2
    79    12    13    1
    80    54    57    1
    81   187   188    1
    82   187   184    1
    83   222   221    2
    84   110   109    1
    85   198   195    1
    86   198   199    1
    87   194   195    1
    88   194   185   am
    89    65    62    1
    90    65    66    1
    91   212   213    1
    92    57    58    1
    93    61    62    1
    94    62    63    1
    95   219   220    1
    96    14    13    1
    97    14    15    2
    98    13    16    1
    99   218   216    1
   100   184   183    1
   101   184   185    1
   102   185   186    2
   103   221   220    1
   104    70    69    1
   105    67    66    1
   106    67    68    1
   107   204   201   ar
   108   204   206   ar
   109   109   107   ar
   110   109   108   ar
   111    16    17    1
   112   215   216    2
   113   215   214    1
   114   220   223    1
   115   199   201   ar
   116   199   200   ar
   117   223   224    1
   118    58    60   am
   119    58    59    2
   120   213   214    1
   121    19    17    1
   122    63    64    2
   123   201   203   ar
   124   206   207   ar
   125   216   217    1
   126   107   105   ar
   127   108   106   ar
   128    69    68    2
   129    69    71    1
   130    17    18    1
   131   224   225   ar
   132   224   226   ar
   133   225   227   ar
   134   200   202   ar
   135    90    89    2
   136   226   228   ar
   137    77    76    1
   138   203   202   ar
   139   203   205   ar
   140   207   205   ar
   141   105   104   ar
   142   227   229   ar
   143   106   104   ar
   144   228   229   ar
   145    73    72    1
   146    73    76    1
   147    73    74    1
   148    89    88    1
   149   229   230    1
   150   104   103    1
   151    76    78    1
   152    86    84   ar
   153    79    74   am
   154    79    80    1
   155    91    88    1
   156    91    92    1
   157    99   100    1
   158    74    75    2
   159    88    87    1
   160    80    81    1
   161    80    83    1
   162   100   103    1
   163   100   101    1
   164    84    83    1
   165    84    85   ar
   166    81    82    2
   167    92    93   ar
   168    92    94   ar
   169    93    95   ar
   170   174   172    1
   171   173   172    1
   172   101   111   am
   173   101   102    2
   174    94    96   ar
   175   163   161   ar
   176    95    97   ar
   177   172   171    2
   178   111   112    1
   179   162   161   ar
   180   161   160    1
   181    96    97   ar
   182    97    98    1
   183   171   170    1
   184   112   115    1
   185   112   113    1
   186   117   116   ar
   187   117   119   ar
   188   115   116    1
   189   182   180   ar
   190   170   169    1
   191   116   118   ar
   192   160   159    1
   193   138   137    1
   194   119   120   ar
   195   180   181   ar
   196   180   179    1
   197   113   125   am
   198   113   114    2
   199   139   137    1
   200   125   126    1
   201   179   176    1
   202   159   156    1
   203   169   168    1
   204   137   136    1
   205   118   120   ar
   206   118   121   ar
   207   148   146   am
   208   130   129    1
   209   120   122   ar
   210   176   177    1
   211   176   175    1
   212   136   133    1
   213   126   127    1
   214   126   129    1
   215   168   165    1
   216   127   128    2
   217   177   178    2
   218   131   129    1
   219   147   146    2
   220   121   123   ar
   221   146   145    1
   222   156   155    1
   223   156   157    1
   224   122   124   ar
   225   154   153    1
   226   158   157    2
   227   133   134    1
   228   133   132    1
   229   155   151   am
   230   165   166    1
   231   165   164    1
   232   134   135    2
   233   123   124   ar
   234   153   150    1
   235   145   144    1
   236   166   167    2
   237   151   152    2
   238   151   150    1
   239   150   149    1
   240   144   141    1
   241   143   142    2
   242   140   141    1
   243   141   142    1
