@<TRIPOS>MOLECULE
tmp/1s0jA00.pdb
 234 225 0 0 0
SMALL
GASTEIGER

@<TRIPOS>ATOM
      1  N         13.8900  -12.4450  -14.4670 N.3    35  ARG35      -0.1231
      2  CA        12.9620  -12.1230  -13.3720 C.3    35  ARG35       0.1694
      3  C         13.7580  -11.6500  -12.1680 C.2    35  ARG35       0.2591
      4  O         14.9430  -11.6540  -12.2240 O.2    35  ARG35      -0.2718
      5  CB        12.1780  -13.3800  -12.9590 C.3    35  ARG35       0.0321
      6  CG        11.0390  -13.7380  -14.0000 C.3    35  ARG35       0.0489
      7  CD         9.8170  -14.4340  -13.4250 C.3    35  ARG35       0.2205
      8  NE         9.2260  -13.5430  -12.4260 N.pl3  35  ARG35      -0.0865
      9  CZ         8.3330  -13.8970  -11.5330 C.cat  35  ARG35       0.5346
     10  NH1        7.8960  -12.9900  -10.6680 N.pl3  35  ARG35       0.1354
     11  NH2        7.8870  -15.1580  -11.4780 N.pl3  35  ARG35       0.1354
     12  N         13.0480  -11.2580  -11.1170 N.am   36  LEU36      -0.1980
     13  CA        13.6760  -11.0010   -9.7960 C.3    36  LEU36       0.1596
     14  C         14.6540   -9.8180   -9.8320 C.2    36  LEU36       0.2287
     15  O         15.8280   -9.9240   -9.4650 O.2    36  LEU36      -0.2864
     16  CB        14.3790  -12.2620   -9.2750 C.3    36  LEU36       0.0297
     17  CG        13.5750  -13.3340   -8.5140 C.3    36  LEU36       0.0022
     18  CD1       13.4610  -12.8720   -7.0430 C.3    36  LEU36       0.0001
     19  CD2       12.2100  -13.5410   -9.1250 C.3    36  LEU36       0.0001
     20  N         16.6260  -16.9350  -16.5560 N.3    53  ARG53      -0.1245
     21  CA        15.9680  -18.2440  -16.6580 C.3    53  ARG53       0.1563
     22  C         16.1280  -18.6540  -18.1220 C.2    53  ARG53       0.2260
     23  O         15.4080  -18.1740  -19.0110 O.2    53  ARG53      -0.2867
     24  CB        14.5000  -18.1530  -16.2440 C.3    53  ARG53       0.0307
     25  CG        14.2910  -17.4190  -14.9020 C.3    53  ARG53       0.0489
     26  CD        13.0530  -17.8100  -14.2020 C.3    53  ARG53       0.2205
     27  NE        12.9830  -17.1620  -12.8640 N.pl3  53  ARG53      -0.0865
     28  CZ        11.9620  -17.3140  -12.0440 C.cat  53  ARG53       0.5346
     29  NH1       10.9010  -18.0280  -12.4090 N.pl3  53  ARG53       0.1354
     30  NH2       11.9780  -16.6890  -10.8630 N.pl3  53  ARG53       0.1354
     31  N          9.7500  -21.5340  -12.3450 N.3    59  ALA59      -0.1231
     32  CA        10.6670  -21.3110  -11.2330 C.3    59  ALA59       0.1694
     33  C         11.7090  -22.4070  -11.0620 C.2    59  ALA59       0.2592
     34  O         12.8320  -22.1550  -10.6090 O.2    59  ALA59      -0.2718
     35  CB         9.8670  -21.1610   -9.9490 C.3    59  ALA59       0.0304
     36  N         11.3240  -23.6500  -11.3370 N.am   60  ASN60      -0.1974
     37  CA        12.2100  -24.7710  -11.0470 C.3    60  ASN60       0.1688
     38  C         12.8450  -25.2550  -12.3320 C.2    60  ASN60       0.2292
     39  O         12.5310  -26.3290  -12.8700 O.2    60  ASN60      -0.2864
     40  CB        11.3870  -25.8360  -10.3220 C.3    60  ASN60       0.1181
     41  CG        10.5860  -25.2130   -9.1850 C.2    60  ASN60       0.2629
     42  OD1       11.1390  -24.4560   -8.3850 O.2    60  ASN60      -0.2716
     43  ND2        9.2960  -25.4510   -9.1560 N.am   60  ASN60      -0.0877
     44  N         19.7910  -24.4970  -10.3260 N.3    93  ARG93      -0.1245
     45  CA        19.4700  -23.0840  -10.2990 C.3    93  ARG93       0.1563
     46  C         19.9260  -22.4140   -9.0310 C.2    93  ARG93       0.2260
     47  O         19.9640  -23.0110   -7.9650 O.2    93  ARG93      -0.2867
     48  CB        17.9510  -22.8730  -10.3420 C.3    93  ARG93       0.0307
     49  CG        17.1110  -23.7690   -9.3800 C.3    93  ARG93       0.0489
     50  CD        15.6040  -23.6930   -9.6630 C.3    93  ARG93       0.2205
     51  NE        14.8210  -24.4500   -8.6710 N.pl3  93  ARG93      -0.0865
     52  CZ        14.6840  -25.7680   -8.6820 C.cat  93  ARG93       0.5346
     53  NH1       15.2220  -26.4940   -9.6840 N.pl3  93  ARG93       0.1354
     54  NH2       13.9590  -26.3500   -7.7250 N.pl3  93  ARG93       0.1354
     55  N         18.6960  -19.1150   -6.9830 N.3    95  VAL95      -0.1231
     56  CA        17.4150  -18.4560   -6.9820 C.3    95  VAL95       0.1692
     57  C         17.2480  -17.3080   -6.0030 C.2    95  VAL95       0.2592
     58  O         17.9230  -17.2070   -4.9850 O.2    95  VAL95      -0.2718
     59  CB        16.2550  -19.4460   -6.7260 C.3    95  VAL95       0.0266
     60  CG1       16.1740  -20.5210   -7.8740 C.3    95  VAL95       0.0020
     61  CG2       16.3580  -20.0620   -5.3310 C.3    95  VAL95       0.0020
     62  N         16.2900  -16.4670   -6.3500 N.am   96  ASP96      -0.1974
     63  CA        15.8500  -15.3140   -5.5610 C.3    96  ASP96       0.1709
     64  C         17.0160  -14.4920   -4.9730 C.2    96  ASP96       0.2293
     65  O         17.1150  -14.2740   -3.7560 O.2    96  ASP96      -0.2864
     66  CB        14.8250  -15.7610   -4.5090 C.3    96  ASP96       0.1436
     67  CG        13.5440  -16.3510   -5.1600 C.2    96  ASP96       0.3671
     68  OD1       12.7210  -16.9400   -4.4550 O.co2  96  ASP96      -0.2456
     69  OD2       13.3070  -16.2530   -6.3760 O.co2  96  ASP96      -0.2456
     70  N         19.5350  -25.0160   -5.8580 N.3   113  TYR113     -0.1241
     71  CA        18.8290  -26.3000   -5.9600 C.3   113  TYR113      0.1605
     72  C         19.4740  -27.0820   -7.0580 C.2   113  TYR113      0.2264
     73  O         19.9020  -26.4980   -8.0290 O.2   113  TYR113     -0.2867
     74  CB        17.3520  -26.1050   -6.2720 C.3   113  TYR113      0.0534
     75  CG        16.6600  -25.4470   -5.1020 C.ar  113  TYR113     -0.0201
     76  CD1       16.6640  -24.0620   -4.9660 C.ar  113  TYR113     -0.0009
     77  CD2       16.0780  -26.2140   -4.1100 C.ar  113  TYR113     -0.0009
     78  CE1       16.0590  -23.4430   -3.8560 C.ar  113  TYR113      0.0417
     79  CE2       15.4410  -25.6090   -2.9980 C.ar  113  TYR113      0.0417
     80  CZ        15.4470  -24.2340   -2.8860 C.ar  113  TYR113      0.1957
     81  OH        14.8500  -23.6510   -1.7920 O.3   113  TYR113     -0.2866
     82  N          8.1740  -26.7180   -6.2760 N.3   119  TYR119     -0.1227
     83  CA         8.3540  -25.4290   -5.5880 C.3   119  TYR119      0.1736
     84  C          8.9510  -25.6610   -4.2090 C.2   119  TYR119      0.2595
     85  O          8.5980  -26.6000   -3.5360 O.2   119  TYR119     -0.2718
     86  CB         7.0200  -24.7390   -5.4730 C.3   119  TYR119      0.0548
     87  CG         6.5890  -24.1750   -6.7870 C.ar  119  TYR119     -0.0200
     88  CD1        5.5890  -24.7730   -7.5310 C.ar  119  TYR119     -0.0009
     89  CD2        7.1910  -23.0160   -7.2940 C.ar  119  TYR119     -0.0009
     90  CE1        5.1760  -24.2070   -8.7430 C.ar  119  TYR119      0.0417
     91  CE2        6.7730  -22.4670   -8.5060 C.ar  119  TYR119      0.0417
     92  CZ         5.7790  -23.0960   -9.2210 C.ar  119  TYR119      0.1957
     93  OH         5.3350  -22.5780  -10.4410 O.3   119  TYR119     -0.2866
     94  N          9.8410  -24.7800   -3.7810 N.am  120  TRP120     -0.1962
     95  CA        10.5820  -25.0250   -2.5380 C.3   120  TRP120      0.1771
     96  C          9.7350  -25.2330   -1.2960 C.2   120  TRP120      0.2620
     97  O         10.1170  -26.0250   -0.4030 O.2   120  TRP120     -0.2715
     98  CB        11.5980  -23.9150   -2.3510 C.3   120  TRP120      0.0590
     99  CG        11.0360  -22.6050   -1.8010 C.ar  120  TRP120      0.0006
    100  CD1       10.2520  -21.6970   -2.4410 C.ar  120  TRP120      0.0946
    101  CD2       11.3490  -22.0460   -0.5330 C.ar  120  TRP120      0.0152
    102  NE1       10.0240  -20.6040   -1.6250 N.ar  120  TRP120     -0.2442
    103  CE2       10.7020  -20.8010   -0.4440 C.ar  120  TRP120      0.0810
    104  CE3       12.0990  -22.4980    0.5620 C.ar  120  TRP120      0.0012
    105  CZ2       10.7670  -20.0020    0.6940 C.ar  120  TRP120      0.0191
    106  CZ3       12.1750  -21.7160    1.6820 C.ar  120  TRP120      0.0001
    107  CH2       11.5140  -20.4630    1.7440 C.ar  120  TRP120      0.0015
    108  N          8.5900  -24.5540   -1.1890 N.am  121  THR121     -0.1951
    109  CA         7.7960  -24.7020    0.0290 C.3   121  THR121      0.1897
    110  C          7.0490  -26.0390    0.0770 C.2   121  THR121      0.2313
    111  O          6.4900  -26.4280    1.1050 O.2   121  THR121     -0.2863
    112  CB         6.8290  -23.5470    0.2120 C.3   121  THR121      0.1794
    113  OG1        6.0270  -23.4250   -0.9670 O.3   121  THR121     -0.2208
    114  CG2        7.5920  -22.1960    0.2750 C.3   121  THR121      0.0378
    115  N         15.6620  -18.8500    2.2060 N.3   176  LEU176     -0.1245
    116  CA        16.0350  -17.9810    1.0870 C.3   176  LEU176      0.1561
    117  C         15.9630  -16.5530    1.5070 C.2   176  LEU176      0.2260
    118  O         15.2700  -16.1920    2.4630 O.2   176  LEU176     -0.2867
    119  CB        15.0650  -18.1550   -0.0930 C.3   176  LEU176      0.0270
    120  CG        14.8570  -19.5710   -0.6110 C.3   176  LEU176      0.0019
    121  CD1       13.7060  -19.5430   -1.6330 C.3   176  LEU176      0.0001
    122  CD2       16.1700  -20.0770   -1.2560 C.3   176  LEU176      0.0001
    123  N         13.0840  -15.6290    4.2050 N.3   195  GLN195     -0.1245
    124  CA        11.9050  -16.4640    4.3320 C.3   195  GLN195      0.1566
    125  C         12.3860  -17.8880    4.6080 C.2   195  GLN195      0.2260
    126  O         13.2990  -18.4270    3.9630 O.2   195  GLN195     -0.2867
    127  CB        11.0320  -16.3810    3.0590 C.3   195  GLN195      0.0367
    128  CG        11.8300  -16.5870    1.7890 C.3   195  GLN195      0.0905
    129  CD        11.0700  -16.2460    0.5260 C.2   195  GLN195      0.2608
    130  OE1        9.8380  -16.3990    0.4500 O.2   195  GLN195     -0.2717
    131  NE2       11.8050  -15.8030   -0.4870 N.am  195  GLN195     -0.0878
    132  N          5.9920  -14.4130    3.5860 N.3   229  SER229     -0.1202
    133  CA         7.1360  -14.7710    2.7780 C.3   229  SER229      0.2020
    134  C          7.7150  -13.5190    2.1220 C.2   229  SER229      0.2618
    135  O          7.2420  -12.4000    2.3810 O.2   229  SER229     -0.2717
    136  CB         6.7190  -15.7850    1.7080 C.3   229  SER229      0.2103
    137  OG         5.9540  -15.0910    0.7360 O.3   229  SER229     -0.2182
    138  N          8.7300  -13.6830    1.2740 N.am  230  GLU230     -0.1979
    139  CA         9.4180  -12.5640    0.6160 C.3   230  GLU230      0.1602
    140  C          9.4450  -11.2910    1.4270 C.2   230  GLU230      0.2287
    141  O          8.9400  -10.2430    0.9930 O.2   230  GLU230     -0.2864
    142  CB         8.8390  -12.2910   -0.7740 C.3   230  GLU230      0.0415
    143  CG         9.2530  -13.3760   -1.7520 C.3   230  GLU230      0.1163
    144  CD         8.7220  -13.1660   -3.1400 C.2   230  GLU230      0.3649
    145  OE1        7.7920  -12.3630   -3.2930 O.co2 230  GLU230     -0.2457
    146  OE2        9.2060  -13.8840   -4.0660 O.co2 230  GLU230     -0.2457
    147  N          5.1380  -10.2900    2.2930 N.3   245  ARG245     -0.1245
    148  CA         4.1880  -10.8990    1.3710 C.3   245  ARG245      0.1563
    149  C          3.3320  -11.9480    2.0650 C.2   245  ARG245      0.2260
    150  O          3.8530  -12.8100    2.7460 O.2   245  ARG245     -0.2867
    151  CB         4.9270  -11.5000    0.1820 C.3   245  ARG245      0.0307
    152  CG         3.9350  -12.2780   -0.8370 C.3   245  ARG245      0.0489
    153  CD         4.7990  -12.8070   -1.9640 C.3   245  ARG245      0.2205
    154  NE         4.0440  -13.7250   -2.8040 N.pl3 245  ARG245     -0.0865
    155  CZ         4.4980  -14.1630   -3.9670 C.cat 245  ARG245      0.5346
    156  NH1        5.6340  -13.7380   -4.4450 N.pl3 245  ARG245      0.1354
    157  NH2        3.7480  -15.0110   -4.6840 N.pl3 245  ARG245      0.1354
    158  N          0.3540  -14.4820    0.7750 N.3   247  ASP247     -0.1239
    159  CA        -0.5120  -14.8180   -0.3430 C.3   247  ASP247      0.1674
    160  C         -1.9480  -14.9030    0.1530 C.2   247  ASP247      0.2266
    161  O         -2.2070  -15.4130    1.2330 O.2   247  ASP247     -0.2867
    162  CB        -0.1130  -16.1520   -0.9780 C.3   247  ASP247      0.1410
    163  CG         1.1660  -16.0590   -1.7590 C.2   247  ASP247      0.3668
    164  OD1        1.8940  -17.0810   -1.8510 O.co2 247  ASP247     -0.2456
    165  OD2        1.4980  -15.0140   -2.3500 O.co2 247  ASP247     -0.2456
    166  N         -4.6640  -14.1650   -9.8210 N.3   311  ARG311     -0.1231
    167  CA        -3.6690  -15.2120   -9.8890 C.3   311  ARG311      0.1694
    168  C         -2.2930  -14.5410   -9.7940 C.2   311  ARG311      0.2592
    169  O         -2.1590  -13.6100   -8.9900 O.2   311  ARG311     -0.2718
    170  CB        -3.8670  -16.1090  -11.1340 C.3   311  ARG311      0.0321
    171  CG        -5.1900  -16.8570  -11.0340 C.3   311  ARG311      0.0489
    172  CD        -5.2810  -18.0640  -12.0030 C.3   311  ARG311      0.2205
    173  NE        -4.3160  -19.0850  -11.5850 N.pl3 311  ARG311     -0.0865
    174  CZ        -4.1920  -20.3090  -12.0870 C.cat 311  ARG311      0.5346
    175  NH1       -4.9880  -20.7360  -13.0860 N.pl3 311  ARG311      0.1354
    176  NH2       -3.2570  -21.1150  -11.5860 N.pl3 311  ARG311      0.1354
    177  N         -1.3260  -14.9410  -10.6000 N.am  312  TRP312     -0.1976
    178  CA         0.0180  -14.3900  -10.4840 C.3   312  TRP312      0.1640
    179  C          0.2480  -13.3670  -11.5870 C.2   312  TRP312      0.2290
    180  O          1.3630  -12.8560  -11.7460 O.2   312  TRP312     -0.2864
    181  CB         1.0920  -15.4950  -10.5350 C.3   312  TRP312      0.0576
    182  CG         1.1610  -16.3680   -9.2740 C.ar  312  TRP312      0.0006
    183  CD1        2.0530  -16.2580   -8.2340 C.ar  312  TRP312      0.0946
    184  CD2        0.3200  -17.4750   -8.9450 C.ar  312  TRP312      0.0152
    185  NE1        1.7860  -17.2070   -7.2750 N.ar  312  TRP312     -0.2442
    186  CE2        0.7290  -17.9690   -7.6940 C.ar  312  TRP312      0.0810
    187  CE3       -0.7590  -18.0900   -9.5780 C.ar  312  TRP312      0.0012
    188  CZ2        0.1210  -19.0640   -7.0700 C.ar  312  TRP312      0.0191
    189  CZ3       -1.3470  -19.1890   -8.9580 C.ar  312  TRP312      0.0001
    190  CH2       -0.9220  -19.6430   -7.7110 C.ar  312  TRP312      0.0015
    191  N         -0.6200  -10.1750  -11.8460 N.3   314  ARG314     -0.1245
    192  CA        -0.0060   -9.0510  -11.1570 C.3   314  ARG314      0.1563
    193  C          0.2920   -7.8310  -12.0250 C.2   314  ARG314      0.2260
    194  O          1.3850   -7.3060  -12.1020 O.2   314  ARG314     -0.2867
    195  CB         1.2140   -9.6030  -10.4280 C.3   314  ARG314      0.0307
    196  CG         0.6970  -10.4060   -9.1900 C.3   314  ARG314      0.0489
    197  CD         1.8140  -11.1260   -8.4430 C.3   314  ARG314      0.2205
    198  NE         2.5250  -12.0500   -9.3390 N.pl3 314  ARG314     -0.0865
    199  CZ         3.4920  -12.8620   -8.9480 C.cat 314  ARG314      0.5346
    200  NH1        3.8380  -12.9460   -7.6500 N.pl3 314  ARG314      0.1354
    201  NH2        4.1070  -13.6210   -9.8470 N.pl3 314  ARG314      0.1354
    202  N          7.3190   -8.0300  -10.1560 N.3   342  TYR342     -0.1241
    203  CA         8.4380   -7.6840   -9.2660 C.3   342  TYR342      0.1605
    204  C          9.1310   -6.4240   -9.7140 C.2   342  TYR342      0.2264
    205  O          9.1440   -6.0810  -10.9050 O.2   342  TYR342     -0.2867
    206  CB         9.4270   -8.8420   -9.1830 C.3   342  TYR342      0.0534
    207  CG         8.9800  -10.0640   -8.4230 C.ar  342  TYR342     -0.0201
    208  CD1        7.6270  -10.3860   -8.2360 C.ar  342  TYR342     -0.0009
    209  CD2        9.9500  -10.8810   -7.8350 C.ar  342  TYR342     -0.0009
    210  CE1        7.2640  -11.5390   -7.4940 C.ar  342  TYR342      0.0417
    211  CE2        9.6040  -12.0100   -7.0790 C.ar  342  TYR342      0.0417
    212  CZ         8.2670  -12.3390   -6.9310 C.ar  342  TYR342      0.1957
    213  OH         7.9960  -13.4590   -6.1570 O.3   342  TYR342     -0.2866
    214  N          3.7770  -15.4950  -20.0320 N.3   362  GLU362     -0.1245
    215  CA         4.7880  -16.1540  -19.2130 C.3   362  GLU362      0.1567
    216  C          6.1960  -16.0940  -19.8100 C.2   362  GLU362      0.2260
    217  O          7.0260  -16.9670  -19.5750 O.2   362  GLU362     -0.2867
    218  CB         4.3730  -17.5930  -18.8200 C.3   362  GLU362      0.0388
    219  CG         3.0930  -17.6360  -17.9990 C.3   362  GLU362      0.1160
    220  CD         3.1190  -16.6580  -16.8190 C.2   362  GLU362      0.3649
    221  OE1        4.1100  -16.7180  -16.0010 O.co2 362  GLU362     -0.2457
    222  OE2        2.1760  -15.8340  -16.7550 O.co2 362  GLU362     -0.2457
    223  N          9.2060  -13.2870  -19.6020 N.3   364  TYR364     -0.1241
    224  CA         9.4240  -12.0480  -18.8550 C.3   364  TYR364      0.1605
    225  C         10.6570  -11.2670  -19.2790 C.2   364  TYR364      0.2264
    226  O         11.7360  -11.8500  -19.4880 O.2   364  TYR364     -0.2867
    227  CB         9.6590  -12.4050  -17.3670 C.3   364  TYR364      0.0534
    228  CG         8.5090  -13.0960  -16.6530 C.ar  364  TYR364     -0.0201
    229  CD1        8.1110  -14.4000  -16.9770 C.ar  364  TYR364     -0.0009
    230  CD2        7.8220  -12.4530  -15.6130 C.ar  364  TYR364     -0.0009
    231  CE1        7.0510  -15.0230  -16.3040 C.ar  364  TYR364      0.0417
    232  CE2        6.7820  -13.0770  -14.9210 C.ar  364  TYR364      0.0417
    233  CZ         6.3920  -14.3430  -15.2660 C.ar  364  TYR364      0.1957
    234  OH         5.3700  -14.9640  -14.5920 O.3   364  TYR364     -0.2866
@<TRIPOS>BOND
     1   214   215    1
     2   216   217    2
     3   216   215    1
     4   223   224    1
     5   226   225    2
     6   225   224    1
     7   215   218    1
     8    23    22    2
     9   224   227    1
    10   218   219    1
    11    22    21    1
    12   219   220    1
    13   227   228    1
    14   229   228   ar
    15   229   231   ar
    16   220   222   ar
    17   220   221   ar
    18    21    20    1
    19    21    24    1
    20   228   230   ar
    21   231   233   ar
    22    24    25    1
    23   230   232   ar
    24   233   232   ar
    25   233   234    1
    26    25    26    1
    27     1     2    1
    28    26    27    1
    29     6     7    1
    30     6     5    1
    31     7     8    1
    32     2     5    1
    33     2     3    1
    34   175   174    1
    35    39    38    2
    36    27    28    2
    37     8     9    2
    38    29    28    1
    39    31    32    1
    40    38    37    1
    41     4     3    2
    42     3    12   am
    43   194   193    2
    44   174   176    1
    45   174   173    2
    46    28    30    1
    47   193   192    1
    48   172   173    1
    49   172   171    1
    50   191   192    1
    51   180   179    2
    52   179   178    1
    53     9    11    1
    54     9    10    1
    55    36    33   am
    56    36    37    1
    57    32    33    1
    58    32    35    1
    59   192   195    1
    60   170   171    1
    61   170   167    1
    62    12    13    1
    63    33    34    2
    64    37    40    1
    65   205   204    2
    66   177   178    1
    67   177   168   am
    68   181   178    1
    69   181   182    1
    70    93    92    1
    71   195   196    1
    72    48    45    1
    73    48    49    1
    74    44    45    1
    75    40    41    1
    76    45    46    1
    77   202   203    1
    78   167   166    1
    79   167   168    1
    80   201   199    1
    81    14    13    1
    82    14    15    2
    83    13    16    1
    84   168   169    2
    85   204   203    1
    86    53    52    1
    87    50    49    1
    88    50    51    1
    89   187   189   ar
    90   187   184   ar
    91   198   199    2
    92   198   197    1
    93    16    17    1
    94   182   184   ar
    95   182   183   ar
    96   203   206    1
    97    92    90   ar
    98    92    91   ar
    99   196   197    1
   100    41    43   am
   101    41    42    2
   102   206   207    1
   103    19    17    1
   104    46    47    2
   105   189   190   ar
   106   199   200    1
   107   184   186   ar
   108    90    88   ar
   109    52    51    2
   110    52    54    1
   111    17    18    1
   112    91    89   ar
   113   207   208   ar
   114   207   209   ar
   115   208   210   ar
   116   183   185   ar
   117    73    72    2
   118    60    59    1
   119   209   211   ar
   120   190   188   ar
   121   186   185   ar
   122   186   188   ar
   123    88    87   ar
   124   210   212   ar
   125    89    87   ar
   126   211   212   ar
   127    72    71    1
   128    55    56    1
   129    56    59    1
   130    56    57    1
   131   212   213    1
   132    87    86    1
   133    59    61    1
   134    69    67   ar
   135    62    57   am
   136    62    63    1
   137    82    83    1
   138    74    71    1
   139    74    75    1
   140    57    58    2
   141    71    70    1
   142    83    86    1
   143    83    84    1
   144    63    64    1
   145    63    66    1
   146    67    66    1
   147    67    68   ar
   148    75    76   ar
   149    75    77   ar
   150    64    65    2
   151    76    78   ar
   152   157   155    1
   153   156   155    1
   154    84    94   am
   155    84    85    2
   156    77    79   ar
   157   146   144   ar
   158   155   154    2
   159    78    80   ar
   160    94    95    1
   161   145   144   ar
   162   144   143    1
   163    79    80   ar
   164    80    81    1
   165   154   153    1
   166    95    98    1
   167    95    96    1
   168   100    99   ar
   169   100   102   ar
   170    98    99    1
   171   165   163   ar
   172   153   152    1
   173   164   163   ar
   174    99   101   ar
   175   163   162    1
   176   143   142    1
   177   121   120    1
   178   102   103   ar
   179    96   108   am
   180    96    97    2
   181   122   120    1
   182   108   109    1
   183   162   159    1
   184   113   112    1
   185   152   151    1
   186   142   139    1
   187   120   119    1
   188   101   103   ar
   189   101   104   ar
   190   131   129   am
   191   103   105   ar
   192   159   160    1
   193   159   158    1
   194   119   116    1
   195   109   110    1
   196   109   112    1
   197   110   111    2
   198   160   161    2
   199   151   148    1
   200   112   114    1
   201   130   129    2
   202   129   128    1
   203   104   106   ar
   204   139   138    1
   205   139   140    1
   206   105   107   ar
   207   137   136    1
   208   141   140    2
   209   116   117    1
   210   116   115    1
   211   138   134   am
   212   148   149    1
   213   148   147    1
   214   117   118    2
   215   106   107   ar
   216   136   133    1
   217   128   127    1
   218   149   150    2
   219   134   135    2
   220   134   133    1
   221   133   132    1
   222   127   124    1
   223   126   125    2
   224   123   124    1
   225   124   125    1
