@<TRIPOS>MOLECULE
tmp/1s0nC00.pdb
 155 152 0 0 0
SMALL
GASTEIGER

@<TRIPOS>ATOM
      1  N         32.4620    9.8380    8.9160 N.3     7  ASP7       -0.1225
      2  CA        31.0480   10.1220    8.7260 C.3     7  ASP7        0.1805
      3  C         30.3620    9.0340    7.9020 C.2     7  ASP7        0.2598
      4  O         30.3700    9.0980    6.6690 O.2     7  ASP7       -0.2718
      5  CB        30.8830   11.4630    7.9940 C.3     7  ASP7        0.1424
      6  CG        29.4070   11.9190    7.9060 C.2     7  ASP7        0.3668
      7  OD1       28.4620   11.0810    7.9700 O.co2   7  ASP7       -0.2456
      8  OD2       29.1880   13.1420    7.7510 O.co2   7  ASP7       -0.2456
      9  N         29.7700    8.0420    8.5750 N.am    8  PHE8       -0.1962
     10  CA        29.0510    6.9470    7.9030 C.3     8  PHE8        0.1771
     11  C         28.1350    7.4840    6.7830 C.2     8  PHE8        0.2620
     12  O         27.4360    8.4800    6.9510 O.2     8  PHE8       -0.2715
     13  CB        28.2100    6.1740    8.9160 C.3     8  PHE8        0.0574
     14  CG        28.8710    5.9970   10.2330 C.ar    8  PHE8       -0.0200
     15  CD1       30.2480    6.0170   10.3430 C.ar    8  PHE8       -0.0042
     16  CD2       28.1140    5.7660   11.3670 C.ar    8  PHE8       -0.0042
     17  CE1       30.8610    5.8070   11.5620 C.ar    8  PHE8       -0.0003
     18  CE2       28.7170    5.5510   12.5960 C.ar    8  PHE8       -0.0003
     19  CZ        30.0960    5.5700   12.6930 C.ar    8  PHE8       -0.0000
     20  N         28.1540    6.7950    5.6470 N.am    9  ASP9       -0.1957
     21  CA        27.3870    7.1650    4.4660 C.3     9  ASP9        0.1840
     22  C         25.9250    6.8230    4.5970 C.2     9  ASP9        0.2622
     23  O         25.5930    5.7480    5.1030 O.2     9  ASP9       -0.2715
     24  CB        27.9680    6.4630    3.2410 C.3     9  ASP9        0.1450
     25  CG        29.3900    6.8630    2.9790 C.2     9  ASP9        0.3671
     26  OD1       29.6080    8.0520    2.6340 O.co2   9  ASP9       -0.2456
     27  OD2       30.2830    5.9970    3.1380 O.co2   9  ASP9       -0.2456
     28  N         25.0680    7.7380    4.1350 N.am   10  TYR10      -0.1960
     29  CA        23.6150    7.5760    4.2130 C.3    10  TYR10       0.1771
     30  C         23.2500    6.4570    5.2260 C.2    10  TYR10       0.2620
     31  O         22.5460    5.4970    4.9190 O.2    10  TYR10      -0.2715
     32  CB        23.0830    7.2890    2.8120 C.3    10  TYR10       0.0574
     33  CG        23.6310    6.0130    2.2230 C.ar   10  TYR10      -0.0198
     34  CD1       22.9580    4.8020    2.3990 C.ar   10  TYR10      -0.0009
     35  CD2       24.8370    5.9980    1.5140 C.ar   10  TYR10      -0.0009
     36  CE1       23.4600    3.6060    1.8860 C.ar   10  TYR10       0.0417
     37  CE2       25.3530    4.7980    0.9920 C.ar   10  TYR10       0.0417
     38  CZ        24.6510    3.6060    1.1850 C.ar   10  TYR10       0.1957
     39  OH        25.1060    2.4130    0.6680 O.3    10  TYR10      -0.2866
     40  N         23.7240    6.6250    6.4560 N.am   11  PHE11      -0.1960
     41  CA        23.5710    5.6530    7.5340 C.3    11  PHE11       0.1771
     42  C         22.3070    4.8120    7.7220 C.2    11  PHE11       0.2619
     43  O         22.3400    3.6080    7.5090 O.2    11  PHE11      -0.2715
     44  CB        23.9180    6.3190    8.8590 C.3    11  PHE11       0.0574
     45  CG        24.3240    5.3470    9.9180 C.ar   11  PHE11      -0.0200
     46  CD1       25.3230    4.4240    9.6730 C.ar   11  PHE11      -0.0042
     47  CD2       23.6930    5.3370   11.1520 C.ar   11  PHE11      -0.0042
     48  CE1       25.6780    3.5000   10.6290 C.ar   11  PHE11      -0.0003
     49  CE2       24.0500    4.4040   12.1230 C.ar   11  PHE11      -0.0003
     50  CZ        25.0430    3.4900   11.8570 C.ar   11  PHE11      -0.0000
     51  N         21.2020    5.4150    8.1400 N.am   12  TYR12      -0.1974
     52  CA        19.9780    4.6380    8.3580 C.3    12  TYR12       0.1639
     53  C         19.5970    3.7690    7.1570 C.2    12  TYR12       0.2290
     54  O         19.0530    2.6770    7.3190 O.2    12  TYR12      -0.2864
     55  CB        18.8060    5.5580    8.7240 C.3    12  TYR12       0.0560
     56  CG        18.9540    6.2760   10.0550 C.ar   12  TYR12      -0.0198
     57  CD1       20.1810    6.3280   10.7200 C.ar   12  TYR12      -0.0009
     58  CD2       17.8780    6.9520   10.6180 C.ar   12  TYR12      -0.0009
     59  CE1       20.3270    7.0350   11.8970 C.ar   12  TYR12       0.0417
     60  CE2       18.0170    7.6600   11.7930 C.ar   12  TYR12       0.0417
     61  CZ        19.2450    7.6990   12.4230 C.ar   12  TYR12       0.1957
     62  OH        19.3860    8.4260   13.5770 O.3    12  TYR12      -0.2866
     63  N         10.7080   12.1050    6.0620 N.3    43  VAL43      -0.1231
     64  CA        11.7520   11.1630    5.6670 C.3    43  VAL43       0.1692
     65  C         13.0190   11.4580    6.4790 C.2    43  VAL43       0.2592
     66  O         13.4670   12.5990    6.5570 O.2    43  VAL43      -0.2718
     67  CB        12.0850   11.2870    4.1480 C.3    43  VAL43       0.0266
     68  CG1       13.2360   10.3560    3.7860 C.3    43  VAL43       0.0020
     69  CG2       10.8600   10.9520    3.3070 C.3    43  VAL43       0.0020
     70  N         13.5930   10.4320    7.0900 N.am   44  ALA44      -0.1966
     71  CA        14.7990   10.6110    7.8750 C.3    44  ALA44       0.1728
     72  C         16.0340   10.6420    6.9550 C.2    44  ALA44       0.2616
     73  O         16.9180   11.5010    7.0870 O.2    44  ALA44      -0.2715
     74  CB        14.9140    9.4900    8.8600 C.3    44  ALA44       0.0334
     75  N         16.0920    9.7010    6.0200 N.am   45  THR45      -0.1951
     76  CA        17.2040    9.6440    5.0920 C.3    45  THR45       0.1897
     77  C         16.8530    8.7010    3.9650 C.2    45  THR45       0.2313
     78  O         16.0090    7.8180    4.1210 O.2    45  THR45      -0.2863
     79  CB        18.4830    9.1430    5.7770 C.3    45  THR45       0.1794
     80  OG1       19.5670    9.1950    4.8540 O.3    45  THR45      -0.2208
     81  CG2       18.3350    7.7150    6.2280 C.3    45  THR45       0.0378
     82  N         21.5220    6.7210   -1.8440 N.3    48  TYR48      -0.1241
     83  CA        21.7640    7.5250   -3.0290 C.3    48  TYR48       0.1605
     84  C         20.8940    7.2280   -4.2470 C.2    48  TYR48       0.2264
     85  O         20.5280    8.1560   -4.9800 O.2    48  TYR48      -0.2867
     86  CB        23.2550    7.5190   -3.3690 C.3    48  TYR48       0.0534
     87  CG        24.0650    8.3930   -2.4150 C.ar   48  TYR48      -0.0201
     88  CD1       24.7500    7.8390   -1.3250 C.ar   48  TYR48      -0.0009
     89  CD2       24.1250    9.7820   -2.5930 C.ar   48  TYR48      -0.0009
     90  CE1       25.4740    8.6460   -0.4470 C.ar   48  TYR48       0.0417
     91  CE2       24.8400   10.5920   -1.7220 C.ar   48  TYR48       0.0417
     92  CZ        25.5160   10.0230   -0.6530 C.ar   48  TYR48       0.1957
     93  OH        26.2440   10.8330    0.2000 O.3    48  TYR48      -0.2866
     94  N         18.1540    9.4070   -3.5370 N.3    51  ARG51      -0.1245
     95  CA        18.4680   10.8340   -3.4760 C.3    51  ARG51       0.1563
     96  C         18.6580   11.4660   -4.8440 C.2    51  ARG51       0.2260
     97  O         18.4270   12.6650   -5.0120 O.2    51  ARG51      -0.2867
     98  CB        19.7340   11.0900   -2.6660 C.3    51  ARG51       0.0307
     99  CG        19.5400   11.0970   -1.1810 C.3    51  ARG51       0.0489
    100  CD        20.7740   11.6540   -0.5230 C.3    51  ARG51       0.2205
    101  NE        20.9630   11.0720    0.7950 N.pl3  51  ARG51      -0.0865
    102  CZ        22.0780   11.1760    1.5050 C.cat  51  ARG51       0.5346
    103  NH1       23.1230   11.8450    1.0310 N.pl3  51  ARG51       0.1354
    104  NH2       22.1420   10.5980    2.6900 N.pl3  51  ARG51       0.1354
    105  N         16.2190   13.7200    3.3140 N.3    57  ALA57      -0.1231
    106  CA        15.7800   13.8740    4.6930 C.3    57  ALA57       0.1694
    107  C         14.9900   15.1700    4.8790 C.2    57  ALA57       0.2592
    108  O         15.4130   16.2410    4.4260 O.2    57  ALA57      -0.2718
    109  CB        16.9770   13.8640    5.6160 C.3    57  ALA57       0.0304
    110  N         13.8310   15.0640    5.5240 N.am   58  GLY58      -0.1957
    111  CA        13.0280   16.2400    5.7650 C.3    58  GLY58       0.1869
    112  C         11.7470   16.3610    4.9770 C.2    58  GLY58       0.2309
    113  O         10.7640   16.8830    5.4940 O.2    58  GLY58      -0.2863
    114  N         11.6560    3.9770   10.4380 N.3    76  MET76      -0.1245
    115  CA        12.8930    4.2070   11.1460 C.3    76  MET76       0.1570
    116  C         13.0010    3.2740   12.3430 C.2    76  MET76       0.2261
    117  O         12.0690    3.1220   13.1180 O.2    76  MET76      -0.2867
    118  CB        12.9650    5.6560   11.5950 C.3    76  MET76       0.0387
    119  CG        14.2650    6.0240   12.2470 C.3    76  MET76       0.0595
    120  SD        14.1000    7.6300   12.9970 S.3    76  MET76      -0.1393
    121  CE        15.0410    8.6280   11.9080 C.3    76  MET76       0.0692
    122  N         25.1800   10.4180   15.9090 N.3   104  ILE104     -0.1231
    123  CA        24.9820    8.9960   15.7590 C.3   104  ILE104      0.1692
    124  C         25.8230    8.3580   14.6810 C.2   104  ILE104      0.2592
    125  O         25.9230    7.1270   14.6280 O.2   104  ILE104     -0.2718
    126  CB        23.4730    8.6730   15.5180 C.3   104  ILE104      0.0266
    127  CG1       23.2570    7.1690   15.5710 C.3   104  ILE104      0.0019
    128  CG2       22.9850    9.2030   14.1810 C.3   104  ILE104      0.0020
    129  CD1       21.7970    6.7680   15.7080 C.3   104  ILE104      0.0001
    130  N         26.4800    9.1850   13.8660 N.am  105  ASP105     -0.1960
    131  CA        27.2340    8.6490   12.7220 C.3   105  ASP105      0.1840
    132  C         28.4990    9.4930   12.3700 C.2   105  ASP105      0.2621
    133  O         29.0330    9.4530   11.2680 O.2   105  ASP105     -0.2715
    134  CB        26.2920    8.5470   11.4910 C.3   105  ASP105      0.1450
    135  CG        26.1230    9.8980   10.7940 C.2   105  ASP105      0.3671
    136  OD1       26.1270   10.9400   11.5300 O.co2 105  ASP105     -0.2456
    137  OD2       26.0510    9.9240    9.5390 O.co2 105  ASP105     -0.2456
    138  N         29.0700   10.1360   13.3670 N.am  106  GLU106     -0.1977
    139  CA        30.2270   10.9550   13.1220 C.3   106  GLU106      0.1602
    140  C         31.1350   10.9350   14.3070 C.2   106  GLU106      0.2287
    141  O         30.6810   11.0910   15.4350 O.2   106  GLU106     -0.2864
    142  CB        29.7920   12.4070   12.8280 C.3   106  GLU106      0.0415
    143  CG        28.9770   12.6450   11.5610 C.3   106  GLU106      0.1163
    144  CD        28.5800   14.1460   11.3480 C.2   106  GLU106      0.3649
    145  OE1       28.9490   15.0430   12.1620 O.co2 106  GLU106     -0.2457
    146  OE2       27.8820   14.4270   10.3420 O.co2 106  GLU106     -0.2457
    147  N         32.5140   12.4690    0.4880 N.3   159  LYS159     -0.1245
    148  CA        31.3760   11.5530    0.4430 C.3   159  LYS159      0.1561
    149  C         30.6780   11.5260   -0.9240 C.2   159  LYS159      0.2260
    150  O         30.6750   12.5210   -1.6540 O.2   159  LYS159     -0.2867
    151  CB        30.3630   11.8740    1.5490 C.3   159  LYS159      0.0271
    152  CG        29.7530   13.2640    1.5200 C.3   159  LYS159      0.0035
    153  CD        28.6430   13.3660    2.5750 C.3   159  LYS159      0.0206
    154  CE        29.1300   12.8600    3.9320 C.3   159  LYS159      0.1093
    155  NZ        28.1550   13.0420    5.0390 N.3   159  LYS159     -0.1314
@<TRIPOS>BOND
     1    97    96    2
     2    85    84    2
     3    96    95    1
     4    84    83    1
     5    94    95    1
     6    95    98    1
     7    86    83    1
     8    86    87    1
     9    83    82    1
    10    98    99    1
    11    89    87   ar
    12    89    91   ar
    13    87    88   ar
    14    91    92   ar
    15   150   149    2
    16    88    90   ar
    17    99   100    1
    18   149   148    1
    19    92    90   ar
    20    92    93    1
    21   100   101    1
    22   148   147    1
    23   148   151    1
    24    39    38    1
    25   101   102    2
    26    37    38   ar
    27    37    35   ar
    28   103   102    1
    29    38    36   ar
    30   102   104    1
    31    35    33   ar
    32   152   151    1
    33   152   153    1
    34    36    34   ar
    35    33    34   ar
    36    33    32    1
    37   153   154    1
    38    26    25   ar
    39    32    29    1
    40    25    27   ar
    41    25    24    1
    42    24    21    1
    43    69    67    1
    44   105   106    1
    45    68    67    1
    46   154   155    1
    47    77    78    2
    48    77    76    1
    49    28    29    1
    50    28    22   am
    51    67    64    1
    52    29    30    1
    53   108   107    2
    54    21    22    1
    55    21    20    1
    56    22    23    2
    57   106   107    1
    58   106   109    1
    59    80    79    1
    60   107   110   am
    61    31    30    2
    62   112   113    2
    63   112   111    1
    64    76    79    1
    65    76    75    1
    66    30    40   am
    67   110   111    1
    68    20    11   am
    69    64    63    1
    70    64    65    1
    71    79    81    1
    72    75    72   am
    73    40    41    1
    74    65    66    2
    75    65    70   am
    76     4     3    2
    77    11    12    2
    78    11    10    1
    79    72    73    2
    80    72    71    1
    81    70    71    1
    82    53    54    2
    83    53    52    1
    84    43    42    2
    85    41    42    1
    86    41    44    1
    87    42    51   am
    88     8     6   ar
    89    71    74    1
    90     3     9   am
    91     3     2    1
    92    10     9    1
    93    10    13    1
    94     6     7   ar
    95     6     5    1
    96     5     2    1
    97    51    52    1
    98    52    55    1
    99    55    56    1
   100     2     1    1
   101    44    45    1
   102    13    14    1
   103   137   135   ar
   104    46    45   ar
   105    46    48   ar
   106    45    47   ar
   107    56    58   ar
   108    56    57   ar
   109    14    15   ar
   110    14    16   ar
   111   146   144   ar
   112    15    17   ar
   113   114   115    1
   114    58    60   ar
   115    48    50   ar
   116    57    59   ar
   117   135   134    1
   118   135   136   ar
   119   115   118    1
   120   115   116    1
   121    47    49   ar
   122   133   132    2
   123   144   143    1
   124   144   145   ar
   125    16    18   ar
   126   134   131    1
   127   143   142    1
   128    17    19   ar
   129   118   119    1
   130    60    61   ar
   131    50    49   ar
   132    59    61   ar
   133   121   120    1
   134   119   120    1
   135   116   117    2
   136   132   131    1
   137   132   138   am
   138    61    62    1
   139    18    19   ar
   140   131   130    1
   141   142   139    1
   142   139   138    1
   143   139   140    1
   144   130   124   am
   145   128   126    1
   146   140   141    2
   147   125   124    2
   148   124   123    1
   149   126   127    1
   150   126   123    1
   151   127   129    1
   152   123   122    1
