@<TRIPOS>MOLECULE
tmp/1s0vP00.pdb
 110 103 0 0 0
SMALL
GASTEIGER

@<TRIPOS>ATOM
      1  N         23.5390  -27.4540  -64.1450 N.3   454  ASP454     -0.1225
      2  CA        23.4270  -27.2290  -62.7040 C.3   454  ASP454      0.1805
      3  C         22.6950  -28.3790  -62.0590 C.2   454  ASP454      0.2597
      4  O         22.5480  -28.4440  -60.8460 O.2   454  ASP454     -0.2718
      5  CB        22.6710  -25.9310  -62.4210 C.3   454  ASP454      0.1424
      6  CG        21.2080  -25.9920  -62.8970 C.2   454  ASP454      0.3668
      7  OD1       20.9320  -26.8140  -63.8100 O.co2 454  ASP454     -0.2456
      8  OD2       20.3410  -25.2380  -62.3830 O.co2 454  ASP454     -0.2456
      9  N         22.2120  -29.3010  -62.8580 N.am  455  LYS455     -0.1979
     10  CA        21.5560  -30.3950  -62.2180 C.3   455  LYS455      0.1596
     11  C         22.2960  -31.6740  -62.4940 C.2   455  LYS455      0.2287
     12  O         21.7550  -32.6070  -63.0950 O.2   455  LYS455     -0.2864
     13  CB        20.1210  -30.4460  -62.6980 C.3   455  LYS455      0.0298
     14  CG        19.2280  -29.5800  -61.8250 C.3   455  LYS455      0.0038
     15  CD        19.7780  -28.1580  -61.5920 C.3   455  LYS455      0.0206
     16  CE        18.9310  -27.3220  -60.5900 C.3   455  LYS455      0.1093
     17  NZ        17.5190  -26.9910  -61.0060 N.3   455  LYS455     -0.1314
     18  N         18.3460  -24.9700  -53.4220 N.3   522  SER522     -0.1217
     19  CA        17.1800  -25.4460  -54.1830 C.3   522  SER522      0.1889
     20  C         15.9690  -24.5140  -54.1360 C.2   522  SER522      0.2288
     21  O         15.8540  -23.5810  -54.9160 O.2   522  SER522     -0.2866
     22  CB        16.7700  -26.8340  -53.7120 C.3   522  SER522      0.2089
     23  OG        17.5930  -27.8280  -54.3030 O.3   522  SER522     -0.2183
     24  N         10.5660  -30.6320  -58.6280 N.3   554  TYR554     -0.1241
     25  CA         9.5200  -30.5770  -59.6490 C.3   554  TYR554      0.1605
     26  C          9.4080  -31.9500  -60.3000 C.2   554  TYR554      0.2264
     27  O          8.3130  -32.4470  -60.5650 O.2   554  TYR554     -0.2867
     28  CB         9.8300  -29.5390  -60.7420 C.3   554  TYR554      0.0534
     29  CG        10.5510  -28.2760  -60.2950 C.ar  554  TYR554     -0.0201
     30  CD1        9.8670  -27.1000  -60.0020 C.ar  554  TYR554     -0.0009
     31  CD2       11.9450  -28.2600  -60.1860 C.ar  554  TYR554     -0.0009
     32  CE1       10.5630  -25.9250  -59.6060 C.ar  554  TYR554      0.0417
     33  CE2       12.6570  -27.0950  -59.7970 C.ar  554  TYR554      0.0417
     34  CZ        11.9640  -25.9290  -59.5060 C.ar  554  TYR554      0.1957
     35  OH        12.6830  -24.7970  -59.1100 O.3   554  TYR554     -0.2866
     36  N          8.5390  -32.8880  -65.6690 N.3   610  ARG610     -0.1245
     37  CA         8.7920  -31.8830  -64.6300 C.3   610  ARG610      0.1563
     38  C          8.3820  -30.4690  -65.1440 C.2   610  ARG610      0.2260
     39  O          8.2410  -29.5350  -64.3560 O.2   610  ARG610     -0.2867
     40  CB        10.2840  -31.8810  -64.2280 C.3   610  ARG610      0.0307
     41  CG        11.1990  -31.2110  -65.2310 C.3   610  ARG610      0.0489
     42  CD        12.6440  -31.5310  -64.9450 C.3   610  ARG610      0.2205
     43  NE        13.2200  -30.7520  -63.8500 N.pl3 610  ARG610     -0.0865
     44  CZ        13.6070  -29.4790  -63.9670 C.cat 610  ARG610      0.5346
     45  NH1       13.4530  -28.8610  -65.1450 N.pl3 610  ARG610      0.1354
     46  NH2       14.1610  -28.8240  -62.9310 N.pl3 610  ARG610      0.1354
     47  N          6.5820  -27.7660  -62.6140 N.3   614  LYS614     -0.1231
     48  CA         7.5080  -26.6610  -62.2580 C.3   614  LYS614      0.1693
     49  C          6.7950  -25.4000  -61.7230 C.2   614  LYS614      0.2591
     50  O          6.8090  -25.1370  -60.5070 O.2   614  LYS614     -0.2718
     51  CB         8.3310  -26.2580  -63.4810 C.3   614  LYS614      0.0285
     52  CG         9.7050  -25.7980  -63.1750 C.3   614  LYS614      0.0035
     53  CD         9.7410  -24.3840  -62.6940 C.3   614  LYS614      0.0206
     54  CE        11.1660  -23.8760  -62.7650 C.3   614  LYS614      0.1093
     55  NZ        11.6330  -23.9550  -64.1810 N.3   614  LYS614     -0.1314
     56  N          6.1800  -24.6190  -62.5990 N.am  615  ARG615     -0.1980
     57  CA         5.5470  -23.4140  -62.1020 C.3   615  ARG615      0.1597
     58  C          4.8290  -23.6200  -60.7660 C.2   615  ARG615      0.2287
     59  O          5.1450  -22.9370  -59.7860 O.2   615  ARG615     -0.2864
     60  CB         4.5770  -22.8530  -63.1540 C.3   615  ARG615      0.0334
     61  CG         5.1550  -21.6400  -63.9520 C.3   615  ARG615      0.0492
     62  CD         6.5180  -21.9860  -64.6550 C.3   615  ARG615      0.2205
     63  NE         7.4930  -20.8760  -64.5840 N.pl3 615  ARG615     -0.0865
     64  CZ         8.8300  -20.9920  -64.6700 C.cat 615  ARG615      0.5346
     65  NH1        9.4190  -22.1760  -64.8430 N.pl3 615  ARG615      0.1354
     66  NH2        9.6050  -19.9110  -64.5640 N.pl3 615  ARG615      0.1354
     67  N          7.3370  -24.4130  -57.3820 N.3   618  MET618     -0.1230
     68  CA         8.1840  -23.3320  -56.8800 C.3   618  MET618      0.1702
     69  C          7.3260  -22.1940  -56.2760 C.2   618  MET618      0.2593
     70  O          7.8140  -21.4150  -55.4190 O.2   618  MET618     -0.2718
     71  CB         9.1600  -22.8170  -58.0080 C.3   618  MET618      0.0401
     72  CG         8.6310  -21.8850  -59.1420 C.3   618  MET618      0.0596
     73  SD         9.5830  -22.0310  -60.7200 S.3   618  MET618     -0.1393
     74  CE        11.3270  -21.9960  -60.1430 C.3   618  MET618      0.0692
     75  N          6.0600  -22.1060  -56.6930 N.am  619  THR619     -0.1953
     76  CA         5.1940  -21.0840  -56.1430 C.3   619  THR619      0.1897
     77  C          4.3340  -21.7030  -55.1170 C.2   619  THR619      0.2313
     78  O          3.2880  -21.1970  -54.7850 O.2   619  THR619     -0.2863
     79  CB         4.2580  -20.4540  -57.1610 C.3   619  THR619      0.1794
     80  OG1        3.2710  -21.4100  -57.5040 O.3   619  THR619     -0.2208
     81  CG2        5.0030  -20.0180  -58.3860 C.3   619  THR619      0.0378
     82  N          4.2140  -19.2810  -52.0320 N.3   622  TYR622     -0.1241
     83  CA         3.5430  -18.0200  -51.8340 C.3   622  TYR622      0.1605
     84  C          2.0540  -18.1680  -51.6290 C.2   622  TYR622      0.2264
     85  O          1.3120  -17.1900  -51.6690 O.2   622  TYR622     -0.2867
     86  CB         3.7960  -17.0890  -52.9850 C.3   622  TYR622      0.0534
     87  CG         5.2290  -16.9710  -53.3820 C.ar  622  TYR622     -0.0201
     88  CD1        6.2700  -17.0710  -52.4700 C.ar  622  TYR622     -0.0009
     89  CD2        5.5370  -16.7360  -54.7030 C.ar  622  TYR622     -0.0009
     90  CE1        7.6080  -16.9320  -52.9010 C.ar  622  TYR622      0.0417
     91  CE2        6.8100  -16.5990  -55.1310 C.ar  622  TYR622      0.0417
     92  CZ         7.8510  -16.6930  -54.2500 C.ar  622  TYR622      0.1957
     93  OH         9.1130  -16.5410  -54.8190 O.3   622  TYR622     -0.2866
     94  N         -2.6490  -22.1960  -63.6420 N.3   632  GLN632     -0.1245
     95  CA        -1.2960  -22.4320  -64.1050 C.3   632  GLN632      0.1566
     96  C         -1.2510  -23.4850  -65.1920 C.2   632  GLN632      0.2260
     97  O         -0.8940  -23.1700  -66.3240 O.2   632  GLN632     -0.2867
     98  CB        -0.4080  -22.8750  -62.9550 C.3   632  GLN632      0.0367
     99  CG        -0.1330  -21.8200  -61.9320 C.3   632  GLN632      0.0905
    100  CD         0.5570  -22.4230  -60.7680 C.2   632  GLN632      0.2608
    101  OE1        0.0230  -23.3250  -60.1070 O.2   632  GLN632     -0.2717
    102  NE2        1.7700  -21.9460  -60.4960 N.am  632  GLN632     -0.0878
    103  N          0.0220  -22.5640  -68.7450 N.3   636  ASP636     -0.1239
    104  CA         1.4290  -22.9030  -68.7970 C.3   636  ASP636      0.1674
    105  C          1.6580  -24.1620  -69.6460 C.2   636  ASP636      0.2266
    106  O          2.7110  -24.3210  -70.2530 O.2   636  ASP636     -0.2867
    107  CB         2.0070  -23.1270  -67.3730 C.3   636  ASP636      0.1410
    108  CG         2.5470  -21.8130  -66.6970 C.2   636  ASP636      0.3668
    109  OD1        2.9680  -20.8440  -67.3890 O.co2 636  ASP636     -0.2456
    110  OD2        2.5620  -21.7580  -65.4440 O.co2 636  ASP636     -0.2456
@<TRIPOS>BOND
     1   106   105    2
     2   105   104    1
     3   104   103    1
     4   104   107    1
     5   109   108   ar
     6   107   108    1
     7   108   110   ar
     8    97    96    2
     9    36    37    1
    10    41    42    1
    11    41    40    1
    12    96    95    1
    13    45    44    1
    14    38    37    1
    15    38    39    2
    16    42    43    1
    17    65    64    1
    18    64    63    2
    19    64    66    1
    20    62    63    1
    21    62    61    1
    22    37    40    1
    23    55    54    1
    24     1     2    1
    25    95    94    1
    26    95    98    1
    27    44    43    2
    28    44    46    1
    29    61    60    1
    30     7     6   ar
    31    51    52    1
    32    51    48    1
    33    52    53    1
    34    60    57    1
    35    12    11    2
    36    98    99    1
    37     6     5    1
    38     6     8   ar
    39     9    10    1
    40     9     3   am
    41    54    53    1
    42     2     5    1
    43     2     3    1
    44    13    10    1
    45    13    14    1
    46    47    48    1
    47    56    57    1
    48    56    49   am
    49    11    10    1
    50    48    49    1
    51    57    58    1
    52     3     4    2
    53    99   100    1
    54    14    15    1
    55    49    50    2
    56    15    16    1
    57    17    16    1
    58   100   102   am
    59   100   101    2
    60    58    59    2
    61    28    29    1
    62    28    25    1
    63    73    74    1
    64    73    72    1
    65    27    26    2
    66    26    25    1
    67    29    31   ar
    68    29    30   ar
    69    31    33   ar
    70    30    32   ar
    71    33    34   ar
    72    25    24    1
    73    32    34   ar
    74    34    35    1
    75    72    71    1
    76    81    79    1
    77    71    68    1
    78    80    79    1
    79    67    68    1
    80    79    76    1
    81    68    69    1
    82    75    69   am
    83    75    76    1
    84    69    70    2
    85    76    77    1
    86    91    89   ar
    87    91    92   ar
    88    77    78    2
    89    21    20    2
    90    93    92    1
    91    89    87   ar
    92    23    22    1
    93    92    90   ar
    94    19    20    1
    95    19    22    1
    96    19    18    1
    97    87    86    1
    98    87    88   ar
    99    86    83    1
   100    90    88   ar
   101    82    83    1
   102    83    84    1
   103    85    84    2
