@<TRIPOS>MOLECULE
tmp/1s13B00.pdb
 201 189 0 0 0
SMALL
GASTEIGER

@<TRIPOS>ATOM
      1  N         37.4430   64.8690   93.2810 N.3     5  SER5       -0.1217
      2  CA        37.6110   64.1010   94.5130 C.3     5  SER5        0.1889
      3  C         37.1300   64.8850   95.7270 C.2     5  SER5        0.2288
      4  O         36.4240   64.3400   96.5740 O.2     5  SER5       -0.2866
      5  CB        39.0760   63.6660   94.7020 C.3     5  SER5        0.2089
      6  OG        39.9520   64.7670   94.8500 O.3     5  SER5       -0.2183
      7  N         34.1850   63.9250   98.4520 N.3     9  LYS9       -0.1245
      8  CA        34.4690   63.7670   99.8720 C.3     9  LYS9        0.1561
      9  C         33.6370   64.7510  100.6980 C.2     9  LYS9        0.2260
     10  O         33.7360   64.7920  101.9260 O.2     9  LYS9       -0.2867
     11  CB        35.9630   64.0040  100.1170 C.3     9  LYS9        0.0271
     12  CG        36.3530   64.2700  101.5680 C.3     9  LYS9        0.0035
     13  CD        37.8580   64.4530  101.7170 C.3     9  LYS9        0.0206
     14  CE        38.5660   63.2090  101.2380 C.3     9  LYS9        0.1093
     15  NZ        37.7610   62.0450  101.6910 N.3     9  LYS9       -0.1314
     16  N         29.2680   63.6010  100.0450 N.3    12  THR12      -0.1203
     17  CA        28.9710   62.2960  100.6280 C.3    12  THR12       0.1994
     18  C         29.2740   62.2770  102.1190 C.2    12  THR12       0.2617
     19  O         28.8410   61.3730  102.8340 O.2    12  THR12      -0.2717
     20  CB        29.7690   61.1550   99.9390 C.3    12  THR12       0.1784
     21  OG1       31.1750   61.3660  100.1170 O.3    12  THR12      -0.2211
     22  CG2       29.4450   61.0980   98.4540 C.3    12  THR12       0.0376
     23  N         30.0250   63.2700  102.5850 N.am   13  LYS13      -0.1979
     24  CA        30.3610   63.3690  104.0030 C.3    13  LYS13       0.1596
     25  C         29.0460   63.3250  104.7690 C.2    13  LYS13       0.2287
     26  O         28.9970   62.9550  105.9440 O.2    13  LYS13      -0.2864
     27  CB        31.0980   64.6870  104.2830 C.3    13  LYS13       0.0298
     28  CG        31.2310   65.0690  105.7620 C.3    13  LYS13       0.0038
     29  CD        31.9900   64.0180  106.5800 C.3    13  LYS13       0.0206
     30  CE        32.2010   64.4610  108.0350 C.3    13  LYS13       0.1093
     31  NZ        30.9200   64.7150  108.7700 N.3    13  LYS13      -0.1314
     32  N         27.5770   59.5560  104.4780 N.3    16  HIS16      -0.1241
     33  CA        28.5730   58.6630  105.0480 C.3    16  HIS16       0.1621
     34  C         28.3110   58.4520  106.5330 C.2    16  HIS16       0.2264
     35  O         28.2670   57.3160  107.0090 O.2    16  HIS16      -0.2867
     36  CB        29.9800   59.2240  104.8490 C.3    16  HIS16       0.0745
     37  CG        31.0580   58.3180  105.3560 C.ar   16  HIS16       0.0817
     38  ND1       31.1670   57.9630  106.6830 N.ar   16  HIS16      -0.2268
     39  CD2       32.0530   57.6650  104.7100 C.ar   16  HIS16       0.1154
     40  CE1       32.1810   57.1310  106.8330 C.ar   16  HIS16       0.1986
     41  NE2       32.7350   56.9330  105.6510 N.ar   16  HIS16      -0.2212
     42  N         25.6170   56.1970  107.1500 N.3    19  ALA19      -0.1231
     43  CA        25.9350   54.8080  106.8600 C.3    19  ALA19       0.1694
     44  C         26.7470   54.1940  107.9940 C.2    19  ALA19       0.2591
     45  O         26.5160   53.0510  108.3760 O.2    19  ALA19      -0.2718
     46  CB        26.7020   54.7110  105.5520 C.3    19  ALA19       0.0304
     47  N         27.6940   54.9590  108.5290 N.am   20  GLU20      -0.1979
     48  CA        28.5340   54.4760  109.6190 C.3    20  GLU20       0.1602
     49  C         27.7800   54.4630  110.9450 C.2    20  GLU20       0.2287
     50  O         28.2600   53.9160  111.9350 O.2    20  GLU20      -0.2864
     51  CB        29.7880   55.3400  109.7470 C.3    20  GLU20       0.0415
     52  CG        29.5110   56.7830  110.1110 C.3    20  GLU20       0.1163
     53  CD        30.7680   57.6290  110.1110 C.2    20  GLU20       0.3649
     54  OE1       31.7230   57.2820  110.8450 O.co2  20  GLU20      -0.2457
     55  OE2       30.8010   58.6410  109.3760 O.co2  20  GLU20      -0.2457
     56  N         25.8500   48.5440  111.5380 N.3    25  MET25      -0.1245
     57  CA        27.2540   48.8980  111.6880 C.3    25  MET25       0.1570
     58  C         27.5740   49.3870  113.0940 C.2    25  MET25       0.2261
     59  O         28.6510   49.1080  113.6170 O.2    25  MET25      -0.2867
     60  CB        27.6510   49.9690  110.6700 C.3    25  MET25       0.0387
     61  CG        27.8710   49.4300  109.2740 C.3    25  MET25       0.0595
     62  SD        29.0420   48.0570  109.2970 S.3    25  MET25      -0.1393
     63  CE        28.2520   46.9190  108.1910 C.3    25  MET25       0.0692
     64  N         30.7180   47.5690  114.5170 N.3    29  GLN29      -0.1245
     65  CA        31.8920   48.3110  114.9660 C.3    29  GLN29       0.1566
     66  C         32.1160   48.2040  116.4680 C.2    29  GLN29       0.2260
     67  O         33.2560   48.1850  116.9350 O.2    29  GLN29      -0.2867
     68  CB        31.7650   49.7830  114.5790 C.3    29  GLN29       0.0367
     69  CG        31.7430   50.0320  113.0860 C.3    29  GLN29       0.0905
     70  CD        31.5940   51.5020  112.7560 C.2    29  GLN29       0.2608
     71  OE1       32.3890   52.3330  113.2010 O.2    29  GLN29      -0.2717
     72  NE2       30.5730   51.8340  111.9720 N.am   29  GLN29      -0.0878
     73  N         21.1610   46.8150   94.2260 N.3   105  TYR105     -0.1241
     74  CA        22.5070   47.3520   94.0600 C.3   105  TYR105      0.1605
     75  C         23.0830   46.8360   92.7400 C.2   105  TYR105      0.2264
     76  O         23.5960   47.6040   91.9280 O.2   105  TYR105     -0.2867
     77  CB        23.3860   46.8980   95.2270 C.3   105  TYR105      0.0534
     78  CG        24.5360   47.8210   95.5770 C.ar  105  TYR105     -0.0201
     79  CD1       25.2280   48.5350   94.5870 C.ar  105  TYR105     -0.0009
     80  CD2       24.9910   47.9170   96.8920 C.ar  105  TYR105     -0.0009
     81  CE1       26.3420   49.3080   94.9030 C.ar  105  TYR105      0.0417
     82  CE2       26.1030   48.6850   97.2140 C.ar  105  TYR105      0.0417
     83  CZ        26.7760   49.3740   96.2170 C.ar  105  TYR105      0.1957
     84  OH        27.9020   50.1010   96.5340 O.3   105  TYR105     -0.2866
     85  N         34.5420   54.5290   92.8430 N.3   125  TYR125     -0.1227
     86  CA        35.0450   55.4060   93.8960 C.3   125  TYR125      0.1736
     87  C         34.4790   55.0360   95.2680 C.2   125  TYR125      0.2596
     88  O         35.2230   54.8350   96.2210 O.2   125  TYR125     -0.2718
     89  CB        34.6860   56.8640   93.5780 C.3   125  TYR125      0.0548
     90  CG        34.7920   57.7830   94.7720 C.ar  125  TYR125     -0.0200
     91  CD1       36.0320   58.1400   95.2950 C.ar  125  TYR125     -0.0009
     92  CD2       33.6440   58.2590   95.4040 C.ar  125  TYR125     -0.0009
     93  CE1       36.1300   58.9510   96.4220 C.ar  125  TYR125      0.0417
     94  CE2       33.7300   59.0650   96.5310 C.ar  125  TYR125      0.0417
     95  CZ        34.9750   59.4070   97.0340 C.ar  125  TYR125      0.1957
     96  OH        35.0510   60.2030   98.1530 O.3   125  TYR125     -0.2866
     97  N         33.1570   54.9530   95.3620 N.am  126  THR126     -0.1939
     98  CA        32.5000   54.6210   96.6200 C.3   126  THR126      0.2028
     99  C         32.9900   53.3050   97.2350 C.2   126  THR126      0.2642
    100  O         33.3800   53.2660   98.4060 O.2   126  THR126     -0.2714
    101  CB        30.9670   54.5720   96.4300 C.3   126  THR126      0.1808
    102  OG1       30.6380   53.7620   95.2890 O.3   126  THR126     -0.2208
    103  CG2       30.4260   55.9800   96.2210 C.3   126  THR126      0.0379
    104  N         32.9760   52.2430   96.4300 N.am  127  ARG127     -0.1977
    105  CA        33.4130   50.9120   96.8510 C.3   127  ARG127      0.1597
    106  C         34.9160   50.7920   97.1230 C.2   127  ARG127      0.2287
    107  O         35.3180   50.5250   98.2500 O.2   127  ARG127     -0.2864
    108  CB        33.0240   49.8790   95.7950 C.3   127  ARG127      0.0334
    109  CG        31.6550   49.2580   95.9760 C.3   127  ARG127      0.0492
    110  CD        31.7630   47.9460   96.7080 C.3   127  ARG127      0.2205
    111  NE        32.1410   48.1010   98.1100 N.pl3 127  ARG127     -0.0865
    112  CZ        31.3010   48.4420   99.0830 C.cat 127  ARG127      0.5346
    113  NH1       30.0230   48.6740   98.8130 N.pl3 127  ARG127      0.1354
    114  NH2       31.7350   48.5250  100.3320 N.pl3 127  ARG127      0.1354
    115  N         37.7740   53.0970   97.0740 N.3   129  LEU129     -0.1231
    116  CA        38.4510   53.9780   98.0230 C.3   129  LEU129      0.1693
    117  C         37.8230   53.7920   99.3980 C.2   129  LEU129      0.2592
    118  O         38.4970   53.9110  100.4200 O.2   129  LEU129     -0.2718
    119  CB        38.3520   55.4420   97.5950 C.3   129  LEU129      0.0284
    120  CG        39.0610   55.8310   96.2930 C.3   129  LEU129      0.0019
    121  CD1       39.2010   57.3500   96.2500 C.3   129  LEU129      0.0001
    122  CD2       40.4340   55.1720   96.2140 C.3   129  LEU129      0.0001
    123  N         36.5300   53.4870   99.4200 N.am  130  GLY130     -0.1957
    124  CA        35.8580   53.2650  100.6820 C.3   130  GLY130      0.1869
    125  C         36.4440   52.0670  101.4040 C.2   130  GLY130      0.2309
    126  O         36.9600   52.1910  102.5110 O.2   130  GLY130     -0.2863
    127  N         39.8510   52.3120  102.7260 N.3   133  SER133     -0.1202
    128  CA        40.0220   53.1510  103.9090 C.3   133  SER133      0.2020
    129  C         39.5480   52.5000  105.2040 C.2   133  SER133      0.2619
    130  O         40.1720   52.6690  106.2480 O.2   133  SER133     -0.2717
    131  CB        39.2930   54.4850  103.7170 C.3   133  SER133      0.2103
    132  OG        39.8590   55.2380  102.6590 O.3   133  SER133     -0.2182
    133  N         38.4450   51.7630  105.1390 N.am  134  GLY134     -0.1956
    134  CA        37.9240   51.1210  106.3340 C.3   134  GLY134      0.1869
    135  C         38.1050   49.6130  106.3740 C.2   134  GLY134      0.2309
    136  O         37.4030   48.9200  107.1140 O.2   134  GLY134     -0.2863
    137  N         39.7690   48.6030  109.9160 N.3   137  VAL137     -0.1231
    138  CA        38.7250   48.7400  110.9260 C.3   137  VAL137      0.1692
    139  C         37.8920   47.4680  111.0310 C.2   137  VAL137      0.2591
    140  O         37.9380   46.7610  112.0380 O.2   137  VAL137     -0.2718
    141  CB        37.7680   49.9100  110.5880 C.3   137  VAL137      0.0266
    142  CG1       36.6880   50.0290  111.6540 C.3   137  VAL137      0.0020
    143  CG2       38.5520   51.2060  110.4700 C.3   137  VAL137      0.0020
    144  N         37.1380   47.1860  109.9750 N.am  138  LEU138     -0.1980
    145  CA        36.2750   46.0120  109.9270 C.3   138  LEU138      0.1596
    146  C         37.0350   44.7050  110.1540 C.2   138  LEU138      0.2287
    147  O         36.5470   43.8070  110.8440 O.2   138  LEU138     -0.2864
    148  CB        35.5530   45.9580  108.5780 C.3   138  LEU138      0.0297
    149  CG        34.8760   47.2610  108.1510 C.3   138  LEU138      0.0022
    150  CD1       34.2140   47.0720  106.7970 C.3   138  LEU138      0.0001
    151  CD2       33.8500   47.6790  109.1990 C.3   138  LEU138      0.0001
    152  N         45.5840   55.7890   97.0700 N.3   170  LYS170     -0.1245
    153  CA        44.4120   56.6480   97.0880 C.3   170  LYS170      0.1561
    154  C         44.6610   58.0230   96.4730 C.2   170  LYS170      0.2260
    155  O         43.8050   58.5580   95.7650 O.2   170  LYS170     -0.2867
    156  CB        43.8920   56.7690   98.5180 C.3   170  LYS170      0.0271
    157  CG        42.8630   55.6910   98.8500 C.3   170  LYS170      0.0035
    158  CD        42.8250   55.3440  100.3310 C.3   170  LYS170      0.0206
    159  CE        42.6950   56.5760  101.2070 C.3   170  LYS170      0.1093
    160  NZ        42.4390   56.2210  102.6450 N.3   170  LYS170     -0.1314
    161  N         42.7770   59.5190   93.1900 N.3   174  ARG174     -0.1245
    162  CA        42.0850   60.8030   93.1880 C.3   174  ARG174      0.1563
    163  C         42.6100   61.6790   92.0590 C.2   174  ARG174      0.2260
    164  O         41.8450   62.4040   91.4260 O.2   174  ARG174     -0.2867
    165  CB        42.2520   61.5370   94.5210 C.3   174  ARG174      0.0307
    166  CG        41.6300   60.8300   95.7110 C.3   174  ARG174      0.0489
    167  CD        41.5990   61.7270   96.9250 C.3   174  ARG174      0.2205
    168  NE        41.3860   60.9550   98.1410 N.pl3 174  ARG174     -0.0865
    169  CZ        42.3460   60.6510   99.0110 C.cat 174  ARG174      0.5346
    170  NH1       43.5930   61.0620   98.8070 N.pl3 174  ARG174      0.1354
    171  NH2       42.0610   59.9150  100.0780 N.pl3 174  ARG174      0.1354
    172  N         25.8650   55.3820   98.1780 N.3   198  PHE198     -0.1241
    173  CA        25.7550   55.2910   99.6280 C.3   198  PHE198      0.1605
    174  C         24.3700   54.8290  100.0470 C.2   198  PHE198      0.2264
    175  O         24.2330   53.8840  100.8170 O.2   198  PHE198     -0.2867
    176  CB        26.0450   56.6370  100.2870 C.3   198  PHE198      0.0534
    177  CG        27.5000   56.8840  100.5430 C.ar  198  PHE198     -0.0203
    178  CD1       28.3420   57.2930   99.5200 C.ar  198  PHE198     -0.0042
    179  CD2       28.0260   56.7210  101.8180 C.ar  198  PHE198     -0.0042
    180  CE1       29.6830   57.5410   99.7640 C.ar  198  PHE198     -0.0003
    181  CE2       29.3650   56.9650  102.0710 C.ar  198  PHE198     -0.0003
    182  CZ        30.1950   57.3780  101.0410 C.ar  198  PHE198     -0.0000
    183  N         23.9470   51.3280   99.9490 N.3   201  ASN201     -0.1240
    184  CA        24.6600   50.6370  101.0170 C.3   201  ASN201      0.1653
    185  C         23.8730   50.7940  102.3140 C.2   201  ASN201      0.2266
    186  O         23.7090   49.8450  103.0770 O.2   201  ASN201     -0.2867
    187  CB        26.0630   51.2230  101.1810 C.3   201  ASN201      0.1155
    188  CG        27.0670   50.6180  100.2110 C.2   201  ASN201      0.2627
    189  OD1       27.6140   49.5450  100.4580 O.2   201  ASN201     -0.2716
    190  ND2       27.2980   51.3000   99.0940 N.am  201  ASN201     -0.0877
    191  N         22.2310   47.7260  104.6620 N.3   205  PHE205     -0.1241
    192  CA        22.4670   47.4830  106.0880 C.3   205  PHE205      0.1605
    193  C         21.1470   47.3660  106.8610 C.2   205  PHE205      0.2264
    194  O         21.0580   46.6330  107.8470 O.2   205  PHE205     -0.2867
    195  CB        23.2870   48.6150  106.7180 C.3   205  PHE205      0.0534
    196  CG        24.6870   48.7320  106.1930 C.ar  205  PHE205     -0.0203
    197  CD1       25.4180   47.6030  105.8420 C.ar  205  PHE205     -0.0042
    198  CD2       25.2950   49.9820  106.0890 C.ar  205  PHE205     -0.0042
    199  CE1       26.7360   47.7160  105.3930 C.ar  205  PHE205     -0.0003
    200  CE2       26.6110   50.1060  105.6440 C.ar  205  PHE205     -0.0003
    201  CZ        27.3310   48.9710  105.2950 C.ar  205  PHE205     -0.0000
@<TRIPOS>BOND
     1   164   163    2
     2    76    75    2
     3   163   162    1
     4    75    74    1
     5    85    86    1
     6   162   161    1
     7   162   165    1
     8     1     2    1
     9    89    86    1
    10    89    90    1
    11    86    87    1
    12    74    73    1
    13    74    77    1
    14     2     5    1
    15     2     3    1
    16   165   166    1
    17    79    81   ar
    18    79    78   ar
    19     5     6    1
    20    90    91   ar
    21    90    92   ar
    22    81    83   ar
    23    77    78    1
    24    87    97   am
    25    87    88    2
    26   102   101    1
    27    91    93   ar
    28    97    98    1
    29    92    94   ar
    30    78    80   ar
    31   166   167    1
    32     3     4    2
    33   155   154    2
    34   108   109    1
    35   108   105    1
    36   109   110    1
    37   122   120    1
    38    83    84    1
    39    83    82   ar
    40   103   101    1
    41   121   120    1
    42   120   119    1
    43    93    95   ar
    44   101    98    1
    45   104   105    1
    46   104    99   am
    47   154   153    1
    48    94    95   ar
    49    98    99    1
    50   110   111    1
    51   105   106    1
    52    80    82   ar
    53   167   168    1
    54    95    96    1
    55   152   153    1
    56   115   116    1
    57   153   156    1
    58   106   107    2
    59    99   100    2
    60   119   116    1
    61   116   117    1
    62   111   112    2
    63   168   169    2
    64   172   173    1
    65     7     8    1
    66    22    20    1
    67   156   157    1
    68   170   169    1
    69   113   112    1
    70   157   158    1
    71   169   171    1
    72   112   114    1
    73   190   188   am
    74   117   123   am
    75   117   118    2
    76   123   124    1
    77   178   180   ar
    78   178   177   ar
    79   173   174    1
    80   173   176    1
    81   180   182   ar
    82     8    11    1
    83     8     9    1
    84    20    21    1
    85    20    17    1
    86   183   184    1
    87    16    17    1
    88   174   175    2
    89    11    12    1
    90   188   189    2
    91   188   187    1
    92   176   177    1
    93   158   159    1
    94   177   179   ar
    95    17    18    1
    96   124   125    1
    97     9    10    2
    98   184   187    1
    99   184   185    1
   100   182   181   ar
   101   159   160    1
   102    14    15    1
   103    14    13    1
   104   125   126    2
   105    12    13    1
   106   179   181   ar
   107    18    23   am
   108    18    19    2
   109   185   186    2
   110    23    24    1
   111   132   131    1
   112   127   128    1
   113   131   128    1
   114   128   129    1
   115    24    27    1
   116    24    25    1
   117    27    28    1
   118    32    33    1
   119   191   192    1
   120    39    37   ar
   121    39    41   ar
   122    25    26    2
   123    36    33    1
   124    36    37    1
   125    33    34    1
   126   133   129   am
   127   133   134    1
   128   129   130    2
   129   201   199   ar
   130   201   200   ar
   131    37    38   ar
   132   199   197   ar
   133    46    43    1
   134   200   198   ar
   135    41    40   ar
   136    28    29    1
   137   197   196   ar
   138   192   195    1
   139   192   193    1
   140   198   196   ar
   141   196   195    1
   142   134   135    1
   143   135   136    2
   144    34    35    2
   145    29    30    1
   146    38    40   ar
   147   150   149    1
   148    43    42    1
   149    43    44    1
   150   193   194    2
   151    44    45    2
   152    44    47   am
   153    30    31    1
   154   149   148    1
   155   149   151    1
   156    63    62    1
   157    47    48    1
   158   148   145    1
   159    61    62    1
   160    61    60    1
   161    55    53   ar
   162    48    51    1
   163    48    49    1
   164    51    52    1
   165   137   138    1
   166   145   144    1
   167   145   146    1
   168   144   139   am
   169    52    53    1
   170    53    54   ar
   171   146   147    2
   172   143   141    1
   173   141   138    1
   174   141   142    1
   175    60    57    1
   176   138   139    1
   177    49    50    2
   178   139   140    2
   179    56    57    1
   180    57    58    1
   181    72    70   am
   182    70    69    1
   183    70    71    2
   184    69    68    1
   185    58    59    2
   186    64    65    1
   187    68    65    1
   188    65    66    1
   189    66    67    2
