@<TRIPOS>MOLECULE
tmp/1s14B00.pdb
 115 106 0 0 0
SMALL
GASTEIGER

@<TRIPOS>ATOM
      1  N         47.8080   61.2150   64.7540 N.3    26  ASN26      -0.1225
      2  CA        48.8490   61.5650   63.7880 C.3    26  ASN26       0.1785
      3  C         48.5740   60.9230   62.4270 C.2    26  ASN26       0.2597
      4  O         48.8640   61.5050   61.3820 O.2    26  ASN26      -0.2718
      5  CB        50.2230   61.1190   64.2940 C.3    26  ASN26       0.1169
      6  CG        50.7430   62.0030   65.4100 C.2    26  ASN26       0.2627
      7  OD1       50.3740   63.1700   65.5050 O.2    26  ASN26      -0.2716
      8  ND2       51.5610   61.4380   66.2870 N.am   26  ASN26      -0.0877
      9  N         48.0150   59.7190   62.4450 N.am   27  SER27      -0.1952
     10  CA        47.7080   59.0150   61.2080 C.3    27  SER27       0.1924
     11  C         46.4510   59.5790   60.5490 C.2    27  SER27       0.2314
     12  O         46.4170   59.7830   59.3400 O.2    27  SER27      -0.2863
     13  CB        47.5200   57.5240   61.4800 C.3    27  SER27       0.2116
     14  OG        48.7340   56.9110   61.8650 O.3    27  SER27      -0.2180
     15  N         45.4120   62.4340   60.7140 N.3    29  ASP29      -0.1225
     16  CA        45.7470   63.7580   60.2210 C.3    29  ASP29       0.1805
     17  C         46.1650   63.6250   58.7630 C.2    29  ASP29       0.2597
     18  O         45.8320   64.4710   57.9360 O.2    29  ASP29      -0.2718
     19  CB        46.8800   64.3650   61.0470 C.3    29  ASP29       0.1424
     20  CG        46.3670   65.1220   62.2530 C.2    29  ASP29       0.3668
     21  OD1       45.1720   65.4810   62.2610 O.co2  29  ASP29      -0.2456
     22  OD2       47.1510   65.3530   63.1950 O.co2  29  ASP29      -0.2456
     23  N         46.8840   62.5520   58.4490 N.am   30  GLU30      -0.1979
     24  CA        47.3120   62.3190   57.0740 C.3    30  GLU30       0.1602
     25  C         46.0670   62.0800   56.2240 C.2    30  GLU30       0.2287
     26  O         45.9780   62.5440   55.0910 O.2    30  GLU30      -0.2864
     27  CB        48.2420   61.1010   56.9860 C.3    30  GLU30       0.0415
     28  CG        49.7070   61.3850   57.3030 C.3    30  GLU30       0.1163
     29  CD        50.3510   62.3770   56.3430 C.2    30  GLU30       0.3649
     30  OE1       50.9610   61.9440   55.3370 O.co2  30  GLU30      -0.2457
     31  OE2       50.2750   63.5900   56.6080 O.co2  30  GLU30      -0.2457
     32  N         49.4430   53.4870   58.8080 N.3    53  ASP53      -0.1239
     33  CA        48.7070   54.3240   57.8740 C.3    53  ASP53       0.1674
     34  C         49.3810   54.2520   56.5110 C.2    53  ASP53       0.2266
     35  O         50.5280   53.8230   56.4000 O.2    53  ASP53      -0.2867
     36  CB        48.6620   55.7700   58.3700 C.3    53  ASP53       0.1410
     37  CG        50.0340   56.4270   58.3940 C.2    53  ASP53       0.3668
     38  OD1       50.6750   56.5230   57.3230 O.co2  53  ASP53      -0.2456
     39  OD2       50.4650   56.8580   59.4840 O.co2  53  ASP53      -0.2456
     40  N         51.8920   59.7680   53.8300 N.3    56  ARG56      -0.1231
     41  CA        53.1040   60.1390   53.1060 C.3    56  ARG56       0.1694
     42  C         54.3490   59.4850   53.6770 C.2    56  ARG56       0.2593
     43  O         55.3610   59.3660   52.9950 O.2    56  ARG56      -0.2718
     44  CB        53.2810   61.6610   53.1240 C.3    56  ARG56       0.0321
     45  CG        52.3200   62.4010   52.2080 C.3    56  ARG56       0.0489
     46  CD        52.3670   63.9100   52.4340 C.3    56  ARG56       0.2205
     47  NE        51.7360   64.3010   53.6900 N.pl3  56  ARG56      -0.0865
     48  CZ        51.5490   65.5620   54.0700 C.cat  56  ARG56       0.5346
     49  NH1       51.9480   66.5570   53.2920 N.pl3  56  ARG56       0.1354
     50  NH2       50.9580   65.8310   55.2230 N.pl3  56  ARG56       0.1354
     51  N         54.2710   59.0540   54.9300 N.am   57  GLY57      -0.1942
     52  CA        55.4200   58.4440   55.5710 C.3    57  GLY57       0.2014
     53  C         56.2460   59.5360   56.2330 C.2    57  GLY57       0.2639
     54  O         56.6240   60.5130   55.5850 O.2    57  GLY57      -0.2714
     55  N         56.5180   59.3830   57.5240 N.am   58  MET58      -0.1963
     56  CA        57.2960   60.3750   58.2610 C.3    58  MET58       0.1722
     57  C         58.6380   60.6480   57.5800 C.2    58  MET58       0.2458
     58  O         59.4620   59.7470   57.4400 O.2    58  MET58      -0.2730
     59  CB        57.5450   59.8870   59.6840 C.3    58  MET58       0.0427
     60  CG        56.3370   59.9450   60.5950 C.3    58  MET58       0.0599
     61  SD        56.6860   59.1380   62.1610 S.3    58  MET58      -0.1393
     62  CE        57.5370   60.4540   63.0360 C.3    58  MET58       0.0692
     63  N         58.8790   61.9020   57.1640 N.am   59  PRO59      -0.2727
     64  CA        60.1340   62.2810   56.4980 C.3    59  PRO59       0.1402
     65  C         61.3650   61.7130   57.2050 C.2    59  PRO59       0.2269
     66  O         61.4450   61.7280   58.4350 O.2    59  PRO59      -0.2865
     67  CB        60.1020   63.8040   56.5470 C.3    59  PRO59       0.0296
     68  CG        58.6380   64.1060   56.4830 C.3    59  PRO59       0.0237
     69  CD        58.0450   63.0880   57.4250 C.3    59  PRO59       0.0939
     70  N         64.7580   62.3130   55.7000 N.3    61  ASP61      -0.1239
     71  CA        65.9520   63.0450   55.2920 C.3    61  ASP61       0.1674
     72  C         66.5590   63.8190   56.4640 C.2    61  ASP61       0.2266
     73  O         65.8690   64.1530   57.4270 O.2    61  ASP61      -0.2867
     74  CB        65.6240   64.0030   54.1470 C.3    61  ASP61       0.1410
     75  CG        64.6730   65.0930   54.5620 C.2    61  ASP61       0.3668
     76  OD1       64.2320   65.0760   55.7300 O.co2  61  ASP61      -0.2456
     77  OD2       64.3630   65.9640   53.7230 O.co2  61  ASP61      -0.2456
     78  N         64.6950   63.6710   60.1270 N.3    70  ALA70      -0.1245
     79  CA        63.4660   64.3040   60.5940 C.3    70  ALA70       0.1562
     80  C         62.5810   63.3810   61.4290 C.2    70  ALA70       0.2260
     81  O         61.9060   63.8360   62.3570 O.2    70  ALA70      -0.2867
     82  CB        62.6820   64.8480   59.4120 C.3    70  ALA70       0.0290
     83  N         61.2450   63.9520   65.5000 N.3    74  ILE74      -0.1245
     84  CA        59.8640   63.8200   65.9440 C.3    74  ILE74       0.1561
     85  C         59.7360   62.8450   67.1110 C.2    74  ILE74       0.2260
     86  O         59.0230   63.1100   68.0760 O.2    74  ILE74      -0.2867
     87  CB        58.9610   63.3290   64.8010 C.3    74  ILE74       0.0252
     88  CG1       58.7970   64.4300   63.7540 C.3    74  ILE74       0.0019
     89  CG2       57.6090   62.9020   65.3510 C.3    74  ILE74       0.0019
     90  CD1       58.6870   63.9100   62.3530 C.3    74  ILE74       0.0001
     91  N         58.9000   55.2590   52.2300 N.3    93  ARG93      -0.1245
     92  CA        59.0490   56.5020   51.4890 C.3    93  ARG93       0.1563
     93  C         59.8780   56.2880   50.2280 C.2    93  ARG93       0.2260
     94  O         60.8950   55.5970   50.2520 O.2    93  ARG93      -0.2867
     95  CB        59.7230   57.5640   52.3620 C.3    93  ARG93       0.0307
     96  CG        58.7670   58.4880   53.0980 C.3    93  ARG93       0.0489
     97  CD        59.5270   59.5780   53.8480 C.3    93  ARG93       0.2205
     98  NE        59.6410   60.8030   53.0630 N.pl3  93  ARG93      -0.0865
     99  CZ        58.6460   61.6610   52.8480 C.cat  93  ARG93       0.5346
    100  NH1       57.4450   61.4420   53.3650 N.pl3  93  ARG93       0.1354
    101  NH2       58.8530   62.7410   52.1060 N.pl3  93  ARG93       0.1354
    102  N         53.3780   55.0350   57.3210 N.3   124  THR124     -0.1218
    103  CA        54.1210   54.8950   58.5590 C.3   124  THR124      0.1862
    104  C         53.4840   53.8900   59.4990 C.2   124  THR124      0.2287
    105  O         52.2630   53.7510   59.5430 O.2   124  THR124     -0.2866
    106  CB        54.2140   56.2380   59.3090 C.3   124  THR124      0.1770
    107  OG1       54.5860   57.2740   58.3950 O.3   124  THR124     -0.2211
    108  CG2       55.2420   56.1570   60.4250 C.3   124  THR124      0.0375
    109  N         53.7420   52.8810   63.5510 N.3   126  VAL126     -0.1245
    110  CA        54.2640   53.1550   64.8760 C.3   126  VAL126      0.1561
    111  C         53.8170   52.0180   65.7740 C.2   126  VAL126      0.2260
    112  O         52.6270   51.7660   65.9340 O.2   126  VAL126     -0.2867
    113  CB        53.7530   54.5020   65.4170 C.3   126  VAL126      0.0252
    114  CG1       54.3300   54.7640   66.8050 C.3   126  VAL126      0.0019
    115  CG2       54.1520   55.6220   64.4560 C.3   126  VAL126      0.0019
@<TRIPOS>BOND
     1    93    94    2
     2    93    92    1
     3    92    91    1
     4    92    95    1
     5   101    99    1
     6    45    46    1
     7    45    44    1
     8    95    96    1
     9    46    47    1
    10    99    98    2
    11    99   100    1
    12    43    42    2
    13    98    97    1
    14    96    97    1
    15    41    44    1
    16    41    42    1
    17    41    40    1
    18    49    48    1
    19    42    51   am
    20    47    48    2
    21    77    75   ar
    22    48    50    1
    23    74    75    1
    24    74    71    1
    25    75    76   ar
    26    51    52    1
    27    26    25    2
    28    71    70    1
    29    71    72    1
    30    30    29   ar
    31    52    53    1
    32    54    53    2
    33    25    24    1
    34    53    55   am
    35    29    31   ar
    36    29    28    1
    37    35    34    2
    38    72    73    2
    39    68    67    1
    40    68    69    1
    41    64    67    1
    42    64    63    1
    43    64    65    1
    44    34    33    1
    45    27    24    1
    46    27    28    1
    47    24    23    1
    48    63    69    1
    49    63    57   am
    50    65    66    2
    51   102   103    1
    52    38    37   ar
    53    58    57    2
    54    55    56    1
    55    57    56    1
    56    33    36    1
    57    33    32    1
    58    18    17    2
    59    56    59    1
    60    36    37    1
    61    37    39   ar
    62   107   106    1
    63    23    17   am
    64   103   106    1
    65   103   104    1
    66    17    16    1
    67   106   108    1
    68    12    11    2
    69    82    79    1
    70   104   105    2
    71    59    60    1
    72    78    79    1
    73    16    15    1
    74    16    19    1
    75    11    10    1
    76    79    80    1
    77    60    61    1
    78    19    20    1
    79    10    13    1
    80    10     9    1
    81     4     3    2
    82    80    81    2
    83    13    14    1
    84    61    62    1
    85    20    21   ar
    86    20    22   ar
    87    90    88    1
    88     3     9   am
    89     3     2    1
    90   109   110    1
    91    88    87    1
    92     2     5    1
    93     2     1    1
    94     5     6    1
    95   115   113    1
    96    87    89    1
    97    87    84    1
    98   110   113    1
    99   110   111    1
   100     6     7    2
   101     6     8   am
   102   113   114    1
   103    83    84    1
   104   111   112    2
   105    84    85    1
   106    85    86    2
