@<TRIPOS>MOLECULE
tmp/1s17A00.pdb
 142 139 0 0 0
SMALL
GASTEIGER

@<TRIPOS>ATOM
      1  N         57.6440   56.9080   43.4210 N.3    42  PRO42      -0.2102
      2  CA        56.9350   57.2520   42.1840 C.3    42  PRO42       0.1504
      3  C         56.8470   56.0480   41.2380 C.2    42  PRO42       0.2576
      4  O         57.6310   55.0660   41.3650 O.2    42  PRO42      -0.2718
      5  CB        57.7850   58.3610   41.6180 C.3    42  PRO42       0.0282
      6  CG        59.2080   57.8170   41.9350 C.3    42  PRO42       0.0208
      7  CD        59.0590   57.3190   43.3520 C.3    42  PRO42       0.0893
      8  N         55.9020   56.0930   40.3040 N.am   43  GLY43      -0.1943
      9  CA        55.7610   54.9800   39.3520 C.3    43  GLY43       0.2014
     10  C         55.2230   55.6420   38.0870 C.2    43  GLY43       0.2639
     11  O         54.9060   56.8340   38.1500 O.2    43  GLY43      -0.2714
     12  N         55.1110   54.9080   36.9840 N.am   44  ILE44      -0.1963
     13  CA        54.6270   55.4690   35.7100 C.3    44  ILE44       0.1727
     14  C         53.2280   54.9820   35.3700 C.2    44  ILE44       0.2616
     15  O         52.6040   55.4250   34.3690 O.2    44  ILE44      -0.2715
     16  CB        55.5510   55.0700   34.5660 C.3    44  ILE44       0.0290
     17  CG1       55.6430   53.5280   34.5290 C.3    44  ILE44       0.0022
     18  CG2       56.9490   55.7660   34.7690 C.3    44  ILE44       0.0023
     19  CD1       56.3660   52.9700   33.3300 C.3    44  ILE44       0.0001
     20  N         52.7430   54.0550   36.1900 N.am   45  GLY45      -0.1955
     21  CA        51.4010   53.5750   35.9510 C.3    45  GLY45       0.1869
     22  C         50.7850   53.0360   37.1980 C.2    45  GLY45       0.2309
     23  O         51.5090   52.7050   38.1520 O.2    45  GLY45      -0.2863
     24  N         45.3740   47.9310   42.5420 N.3    50  GLN50      -0.1245
     25  CA        46.5770   48.1240   43.3780 C.3    50  GLN50       0.1566
     26  C         46.3310   48.9650   44.5790 C.2    50  GLN50       0.2260
     27  O         47.1160   48.8870   45.5590 O.2    50  GLN50      -0.2867
     28  CB        47.7060   48.7590   42.5890 C.3    50  GLN50       0.0367
     29  CG        48.3750   47.7860   41.5500 C.3    50  GLN50       0.0905
     30  CD        49.4570   48.5030   40.7650 C.2    50  GLN50       0.2608
     31  OE1       49.1620   49.1920   39.7640 O.2    50  GLN50      -0.2717
     32  NE2       50.7290   48.3570   41.2070 N.am   50  GLN50      -0.0878
     33  N         61.1540   43.1150   28.1780 N.3    87  TYR87      -0.1227
     34  CA        61.3440   44.3760   28.8530 C.3    87  TYR87       0.1736
     35  C         61.5140   43.9960   30.3160 C.2    87  TYR87       0.2595
     36  O         60.8540   43.0650   30.7900 O.2    87  TYR87      -0.2718
     37  CB        60.1050   45.2540   28.6660 C.3    87  TYR87       0.0548
     38  CG        60.3330   46.6790   29.1000 C.ar   87  TYR87      -0.0200
     39  CD1       61.0010   47.5850   28.2580 C.ar   87  TYR87      -0.0009
     40  CD2       60.0050   47.0950   30.3860 C.ar   87  TYR87      -0.0009
     41  CE1       61.3470   48.8670   28.7060 C.ar   87  TYR87       0.0417
     42  CE2       60.3520   48.3820   30.8450 C.ar   87  TYR87       0.0417
     43  CZ        61.0220   49.2540   30.0000 C.ar   87  TYR87       0.1957
     44  OH        61.3770   50.5130   30.4470 O.3    87  TYR87      -0.2866
     45  N         62.4090   44.6830   31.0270 N.am   88  GLN88      -0.1965
     46  CA        62.5880   44.3700   32.4310 C.3    88  GLN88       0.1733
     47  C         61.5130   45.1830   33.1320 C.2    88  GLN88       0.2616
     48  O         61.5510   46.4150   33.1290 O.2    88  GLN88      -0.2715
     49  CB        63.9810   44.7740   32.9580 C.3    88  GLN88       0.0408
     50  CG        64.8600   43.5670   33.3810 C.3    88  GLN88       0.0908
     51  CD        65.7330   43.8850   34.5790 C.2    88  GLN88       0.2608
     52  OE1       66.3320   44.9680   34.6500 O.2    88  GLN88      -0.2717
     53  NE2       65.8180   42.9470   35.5320 N.am   88  GLN88      -0.0878
     54  N         60.5610   44.4980   33.7420 N.am   89  GLU89      -0.1963
     55  CA        59.4810   45.1940   34.4080 C.3    89  GLU89       0.1733
     56  C         59.6150   45.2220   35.8970 C.2    89  GLU89       0.2617
     57  O         60.1950   44.3160   36.4800 O.2    89  GLU89      -0.2715
     58  CB        58.1430   44.5090   34.0940 C.3    89  GLU89       0.0429
     59  CG        57.7110   44.6510   32.6550 C.3    89  GLU89       0.1163
     60  CD        56.3110   44.0640   32.3640 C.2    89  GLU89       0.3649
     61  OE1       55.3910   44.1120   33.2470 O.co2  89  GLU89      -0.2457
     62  OE2       56.1460   43.5970   31.2210 O.co2  89  GLU89      -0.2457
     63  N         59.0680   46.2820   36.4860 N.am   90  GLY90      -0.1940
     64  CA        58.9750   46.4210   37.9250 C.3    90  GLY90       0.2014
     65  C         57.4810   46.7080   38.1790 C.2    90  GLY90       0.2639
     66  O         56.6640   46.8690   37.2150 O.2    90  GLY90      -0.2714
     67  N         57.1240   46.8220   39.4570 N.am   91  CYS91      -0.1953
     68  CA        55.7340   47.0380   39.8620 C.3    91  CYS91       0.1843
     69  C         55.7260   47.6010   41.2520 C.2    91  CYS91       0.2625
     70  O         56.4860   47.1230   42.1130 O.2    91  CYS91      -0.2714
     71  CB        54.9880   45.6670   39.8530 C.3    91  CYS91       0.0997
     72  SG        53.2050   45.7690   40.2630 S.3    91  CYS91      -0.0797
     73  N         54.8690   48.5880   41.4940 N.am   92  LEU92      -0.1977
     74  CA        54.7500   49.2360   42.8160 C.3    92  LEU92       0.1596
     75  C         54.2070   48.2300   43.8390 C.2    92  LEU92       0.2287
     76  O         54.4580   48.3470   45.0430 O.2    92  LEU92      -0.2864
     77  CB        53.8040   50.4370   42.7090 C.3    92  LEU92       0.0297
     78  CG        54.3800   51.5950   41.8550 C.3    92  LEU92       0.0022
     79  CD1       53.3230   52.7460   41.7780 C.3    92  LEU92       0.0001
     80  CD2       55.6840   52.0910   42.4520 C.3    92  LEU92       0.0001
     81  N         62.7780   43.5620   39.6970 N.3    98  TYR98      -0.1241
     82  CA        62.6680   43.8660   38.2750 C.3    98  TYR98       0.1605
     83  C         63.0530   42.6210   37.5060 C.2    98  TYR98       0.2264
     84  O         64.1390   42.1100   37.7120 O.2    98  TYR98      -0.2867
     85  CB        63.6070   45.0330   37.9110 C.3    98  TYR98       0.0534
     86  CG        63.3020   46.2600   38.7260 C.ar   98  TYR98      -0.0201
     87  CD1       63.8350   46.4250   40.0090 C.ar   98  TYR98      -0.0009
     88  CD2       62.4360   47.2370   38.2350 C.ar   98  TYR98      -0.0009
     89  CE1       63.5020   47.5400   40.7870 C.ar   98  TYR98       0.0417
     90  CE2       62.0960   48.3500   38.9990 C.ar   98  TYR98       0.0417
     91  CZ        62.6260   48.4920   40.2660 C.ar   98  TYR98       0.1957
     92  OH        62.2730   49.5960   41.0130 O.3    98  TYR98      -0.2866
     93  N         57.3980   51.4280   25.5770 N.3   126  LEU126     -0.1245
     94  CA        56.9510   51.5520   26.9610 C.3   126  LEU126      0.1561
     95  C         55.4020   51.6270   27.1020 C.2   126  LEU126      0.2260
     96  O         54.8270   51.0490   28.0310 O.2   126  LEU126     -0.2867
     97  CB        57.5680   52.7890   27.5740 C.3   126  LEU126      0.0270
     98  CG        57.9830   52.7540   29.0300 C.3   126  LEU126      0.0019
     99  CD1       57.9410   54.1700   29.5680 C.3   126  LEU126      0.0001
    100  CD2       57.1680   51.7900   29.8180 C.3   126  LEU126      0.0001
    101  N         53.9330   48.0910   26.7640 N.3   129  VAL129     -0.1231
    102  CA        54.2950   47.2880   27.9200 C.3   129  VAL129      0.1692
    103  C         53.4100   47.7060   29.1230 C.2   129  VAL129      0.2592
    104  O         52.7670   46.8690   29.7670 O.2   129  VAL129     -0.2718
    105  CB        55.8020   47.5190   28.3330 C.3   129  VAL129      0.0266
    106  CG1       56.0820   46.8730   29.6950 C.3   129  VAL129      0.0020
    107  CG2       56.7610   46.9170   27.2620 C.3   129  VAL129      0.0020
    108  N         53.3740   49.0190   29.4020 N.am  130  CYS130     -0.1970
    109  CA        52.6350   49.4790   30.5420 C.3   130  CYS130      0.1712
    110  C         51.1140   49.1580   30.4280 C.2   130  CYS130      0.2296
    111  O         50.5020   48.6630   31.3990 O.2   130  CYS130     -0.2864
    112  CB        52.9900   50.9680   30.7990 C.3   130  CYS130      0.0983
    113  SG        52.2410   51.6680   32.3780 S.3   130  CYS130     -0.0798
    114  N         50.6110   45.4840   31.2680 N.3   133  HIS133     -0.1226
    115  CA        50.9190   45.2820   32.6770 C.3   133  HIS133      0.1752
    116  C         49.7590   45.7720   33.5540 C.2   133  HIS133      0.2595
    117  O         49.3830   45.0950   34.5240 O.2   133  HIS133     -0.2718
    118  CB        52.2210   46.0460   33.0100 C.3   133  HIS133      0.0759
    119  CG        52.5750   46.0750   34.4670 C.ar  133  HIS133      0.0818
    120  ND1       53.7750   45.5800   34.9470 N.ar  133  HIS133     -0.2268
    121  CD2       51.9160   46.5750   35.5460 C.ar  133  HIS133      0.1154
    122  CE1       53.8340   45.7720   36.2600 C.ar  133  HIS133      0.1986
    123  NE2       52.7220   46.3730   36.6470 N.ar  133  HIS133     -0.2212
    124  N         49.1810   46.9380   33.2330 N.am  134  GLU134     -0.1979
    125  CA        48.0850   47.4790   34.0550 C.3   134  GLU134      0.1602
    126  C         46.7660   46.7040   33.8210 C.2   134  GLU134      0.2287
    127  O         45.9930   46.4320   34.7610 O.2   134  GLU134     -0.2864
    128  CB        47.8850   48.9800   33.7720 C.3   134  GLU134      0.0415
    129  CG        49.1230   49.8850   34.0560 C.3   134  GLU134      0.1163
    130  CD        49.6820   49.7390   35.4780 C.2   134  GLU134      0.3649
    131  OE1       48.9750   49.2440   36.3860 O.co2 134  GLU134     -0.2457
    132  OE2       50.8530   50.1200   35.6940 O.co2 134  GLU134     -0.2457
    133  N         46.7930   43.7190   35.9360 N.3   137  HIS137     -0.1241
    134  CA        46.3470   43.9710   37.3250 C.3   137  HIS137      0.1621
    135  C         44.8170   43.8620   37.4860 C.2   137  HIS137      0.2264
    136  O         44.3080   43.2790   38.4400 O.2   137  HIS137     -0.2867
    137  CB        46.7750   45.3950   37.8240 C.3   137  HIS137      0.0745
    138  CG        48.1810   45.4830   38.2940 C.ar  137  HIS137      0.0817
    139  ND1       48.6630   44.7570   39.3780 N.ar  137  HIS137     -0.2268
    140  CD2       49.2150   46.2550   37.8690 C.ar  137  HIS137      0.1154
    141  CE1       49.9330   45.0860   39.5880 C.ar  137  HIS137      0.1986
    142  NE2       50.2900   45.9880   38.6850 N.ar  137  HIS137     -0.2212
@<TRIPOS>BOND
     1    93    94    1
     2   101   102    1
     3    94    95    1
     4    94    97    1
     5    95    96    2
     6   107   105    1
     7    97    98    1
     8   102   105    1
     9   102   103    1
    10    33    34    1
    11    39    41   ar
    12    39    38   ar
    13   105   106    1
    14    37    34    1
    15    37    38    1
    16    41    43   ar
    17    34    35    1
    18    98    99    1
    19    98   100    1
    20    38    40   ar
    21   103   108   am
    22   103   104    2
    23   108   109    1
    24    43    44    1
    25    43    42   ar
    26    35    36    2
    27    35    45   am
    28    40    42   ar
    29   110   109    1
    30   110   111    2
    31   109   112    1
    32   112   113    1
    33    45    46    1
    34    62    60   ar
    35   114   115    1
    36    60    59    1
    37    60    61   ar
    38    46    49    1
    39    46    47    1
    40    59    58    1
    41   115   118    1
    42   115   116    1
    43    49    50    1
    44   118   119    1
    45    48    47    2
    46    47    54   am
    47   124   116   am
    48   124   125    1
    49    19    17    1
    50    50    51    1
    51   116   117    2
    52    54    55    1
    53   128   125    1
    54   128   129    1
    55   126   125    1
    56   126   127    2
    57   129   130    1
    58    58    55    1
    59    15    14    2
    60    55    56    1
    61   119   120   ar
    62   119   121   ar
    63    17    16    1
    64    16    18    1
    65    16    13    1
    66    51    52    2
    67    51    53   am
    68   120   122   ar
    69    14    13    1
    70    14    20   am
    71   130   132   ar
    72   130   131   ar
    73   121   123   ar
    74    13    12    1
    75    56    57    2
    76    56    63   am
    77   133   134    1
    78    21    20    1
    79    21    22    1
    80   122   123   ar
    81    63    64    1
    82    12    10   am
    83    22    23    2
    84    66    65    2
    85   134   135    1
    86   134   137    1
    87   135   136    2
    88    83    84    2
    89    83    82    1
    90   137   138    1
    91   140   138   ar
    92   140   142   ar
    93    85    82    1
    94    85    86    1
    95    64    65    1
    96    10    11    2
    97    10     9    1
    98    65    67   am
    99    88    86   ar
   100    88    90   ar
   101    82    81    1
   102   138   139   ar
   103   142   141   ar
   104    86    87   ar
   105    90    91   ar
   106     9     8    1
   107   139   141   ar
   108    67    68    1
   109    31    30    2
   110    71    68    1
   111    71    72    1
   112    68    69    1
   113    87    89   ar
   114    91    89   ar
   115    91    92    1
   116     8     3   am
   117    30    32   am
   118    30    29    1
   119     3     4    2
   120     3     2    1
   121    69    73   am
   122    69    70    2
   123    73    74    1
   124    29    28    1
   125     5     6    1
   126     5     2    1
   127    79    78    1
   128    78    80    1
   129    78    77    1
   130     6     7    1
   131     2     1    1
   132    24    25    1
   133    28    25    1
   134    77    74    1
   135    74    75    1
   136     7     1    1
   137    25    26    1
   138    75    76    2
   139    26    27    2
