@<TRIPOS>MOLECULE
tmp/1s1fA02.pdb
 96 93 0 0 0
SMALL
GASTEIGER

@<TRIPOS>ATOM
      1  N         19.0100   40.8850   72.9310 N.3    74  ARG74      -0.1231
      2  CA        20.0300   40.5210   71.9550 C.3    74  ARG74       0.1694
      3  C         20.9980   41.6600   71.6910 C.2    74  ARG74       0.2592
      4  O         20.7150   42.8140   72.0060 O.2    74  ARG74      -0.2718
      5  CB        19.3630   40.1390   70.6310 C.3    74  ARG74       0.0321
      6  CG        18.5320   41.2660   70.0060 C.3    74  ARG74       0.0489
      7  CD        18.1020   40.9420   68.5790 C.3    74  ARG74       0.2205
      8  NE        17.3450   42.0420   67.9840 N.pl3  74  ARG74      -0.0865
      9  CZ        16.0640   42.2920   68.2300 C.cat  74  ARG74       0.5346
     10  NH1       15.3790   41.5160   69.0600 N.pl3  74  ARG74       0.1354
     11  NH2       15.4670   43.3280   67.6530 N.pl3  74  ARG74       0.1354
     12  N         22.1340   41.3260   71.0820 N.am   75  LEU75      -0.1966
     13  CA        23.1570   42.3150   70.7570 C.3    75  LEU75       0.1728
     14  C         22.7810   43.1950   69.5620 C.2    75  LEU75       0.2616
     15  O         22.8440   44.4180   69.6390 O.2    75  LEU75      -0.2715
     16  CB        24.4910   41.6150   70.4520 C.3    75  LEU75       0.0311
     17  CG        25.6590   42.5240   70.0390 C.3    75  LEU75       0.0022
     18  CD1       26.0520   43.4190   71.2090 C.3    75  LEU75       0.0001
     19  CD2       26.8560   41.6890   69.5970 C.3    75  LEU75       0.0001
     20  N         22.3940   42.5650   68.4600 N.am   76  ALA76      -0.1977
     21  CA        22.0560   43.2890   67.2360 C.3    76  ALA76       0.1597
     22  C         20.7170   44.0090   67.2550 C.2    76  ALA76       0.2287
     23  O         19.7340   43.5010   67.7960 O.2    76  ALA76      -0.2864
     24  CB        22.1030   42.3300   66.0510 C.3    76  ALA76       0.0319
     25  N         17.6640   41.2890   63.4020 N.3    79  PHE79      -0.1227
     26  CA        18.1120   39.9640   62.9830 C.3    79  PHE79       0.1736
     27  C         18.5230   39.9680   61.5210 C.2    79  PHE79       0.2595
     28  O         18.0630   40.7980   60.7360 O.2    79  PHE79      -0.2718
     29  CB        16.9850   38.9410   63.1480 C.3    79  PHE79       0.0547
     30  CG        16.7150   38.5490   64.5650 C.ar   79  PHE79      -0.0202
     31  CD1       15.4110   38.5200   65.0510 C.ar   79  PHE79      -0.0042
     32  CD2       17.7520   38.1650   65.4050 C.ar   79  PHE79      -0.0042
     33  CE1       15.1420   38.1120   66.3500 C.ar   79  PHE79      -0.0003
     34  CE2       17.4940   37.7530   66.7120 C.ar   79  PHE79      -0.0003
     35  CZ        16.1850   37.7270   67.1830 C.ar   79  PHE79      -0.0000
     36  N         19.3830   39.0240   61.1570 N.am   80  ILE80      -0.1966
     37  CA        19.8240   38.8900   59.7790 C.3    80  ILE80       0.1712
     38  C         18.9250   37.8560   59.0990 C.2    80  ILE80       0.2458
     39  O         18.3690   38.1160   58.0330 O.2    80  ILE80      -0.2730
     40  CB        21.2980   38.4340   59.6910 C.3    80  ILE80       0.0289
     41  CG1       22.2100   39.5120   60.2800 C.3    80  ILE80       0.0022
     42  CG2       21.6700   38.1470   58.2370 C.3    80  ILE80       0.0023
     43  CD1       23.6640   39.1180   60.3380 C.3    80  ILE80       0.0001
     44  N         18.7680   36.6680   59.7100 N.am   81  PRO81      -0.2727
     45  CA        17.9120   35.6480   59.0940 C.3    81  PRO81       0.1402
     46  C         16.4430   36.0530   59.1590 C.2    81  PRO81       0.2269
     47  O         15.9930   36.6240   60.1540 O.2    81  PRO81      -0.2865
     48  CB        18.1970   34.3990   59.9330 C.3    81  PRO81       0.0296
     49  CG        19.5870   34.6410   60.4530 C.3    81  PRO81       0.0237
     50  CD        19.5200   36.0930   60.8390 C.3    81  PRO81       0.0939
     51  N         33.3220   36.2170   67.4030 N.3   281  ARG281     -0.1245
     52  CA        32.2390   37.1900   67.4580 C.3   281  ARG281      0.1563
     53  C         32.1900   37.9350   68.7790 C.2   281  ARG281      0.2260
     54  O         32.8780   37.5690   69.7430 O.2   281  ARG281     -0.2867
     55  CB        30.8920   36.4750   67.2660 C.3   281  ARG281      0.0307
     56  CG        30.5250   35.5130   68.4160 C.3   281  ARG281      0.0489
     57  CD        29.0230   35.2280   68.4340 C.3   281  ARG281      0.2205
     58  NE        28.2890   36.4820   68.5490 N.pl3 281  ARG281     -0.0865
     59  CZ        27.3070   36.8610   67.7380 C.cat 281  ARG281      0.5346
     60  NH1       26.9110   36.0730   66.7410 N.pl3 281  ARG281      0.1354
     61  NH2       26.7600   38.0590   67.8950 N.pl3 281  ARG281      0.1354
     62  N         26.9980   37.0210   72.1360 N.3   284  VAL284     -0.1231
     63  CA        26.3050   35.8370   71.6290 C.3   284  VAL284      0.1692
     64  C         25.3290   36.2340   70.5240 C.2   284  VAL284      0.2593
     65  O         24.9120   37.3920   70.4450 O.2   284  VAL284     -0.2718
     66  CB        25.5480   35.1050   72.7720 C.3   284  VAL284      0.0266
     67  CG1       26.5420   34.4970   73.7490 C.3   284  VAL284      0.0020
     68  CG2       24.6280   36.0830   73.5100 C.3   284  VAL284      0.0020
     69  N         24.9500   35.2660   69.6920 N.am  285  GLY285     -0.1942
     70  CA        24.0780   35.5390   68.5600 C.3   285  GLY285      0.2014
     71  C         22.5850   35.2880   68.6500 C.2   285  GLY285      0.2638
     72  O         21.8220   36.1890   68.9960 O.2   285  GLY285     -0.2714
     73  N         22.1620   34.0730   68.3100 N.am  286  LEU286     -0.1977
     74  CA        20.7440   33.7270   68.3320 C.3   286  LEU286      0.1596
     75  C         20.4390   32.7140   69.4160 C.2   286  LEU286      0.2287
     76  O         21.0550   31.6500   69.4800 O.2   286  LEU286     -0.2864
     77  CB        20.3020   33.1540   66.9820 C.3   286  LEU286      0.0297
     78  CG        20.3760   34.0680   65.7600 C.3   286  LEU286      0.0022
     79  CD1       19.8030   33.3280   64.5570 C.3   286  LEU286      0.0001
     80  CD2       19.5930   35.3480   66.0200 C.3   286  LEU286      0.0001
     81  N         29.3050   42.4240   64.7720 N.3   384  LEU384     -0.1231
     82  CA        28.8220   41.1540   65.2960 C.3   384  LEU384      0.1693
     83  C         29.9950   40.1770   65.2120 C.2   384  LEU384      0.2591
     84  O         30.3170   39.4860   66.1800 O.2   384  LEU384     -0.2718
     85  CB        27.6380   40.6460   64.4630 C.3   384  LEU384      0.0284
     86  CG        26.4210   41.5750   64.3680 C.3   384  LEU384      0.0019
     87  CD1       25.3330   40.9030   63.5390 C.3   384  LEU384      0.0001
     88  CD2       25.8980   41.9020   65.7600 C.3   384  LEU384      0.0001
     89  N         30.6440   40.1340   64.0520 N.am  385  ILE385     -0.1980
     90  CA        31.7950   39.2580   63.8480 C.3   385  ILE385      0.1595
     91  C         33.0610   40.1070   63.9490 C.2   385  ILE385      0.2287
     92  O         33.1890   41.1260   63.2700 O.2   385  ILE385     -0.2864
     93  CB        31.7340   38.5690   62.4610 C.3   385  ILE385      0.0276
     94  CG1       30.3960   37.8340   62.3140 C.3   385  ILE385      0.0022
     95  CG2       32.8870   37.5790   62.2970 C.3   385  ILE385      0.0022
     96  CD1       30.1110   36.8260   63.4240 C.3   385  ILE385      0.0001
@<TRIPOS>BOND
     1    39    38    2
     2    42    40    1
     3    45    46    1
     4    45    44    1
     5    45    48    1
     6    38    44   am
     7    38    37    1
     8    46    47    2
     9    40    37    1
    10    40    41    1
    11    44    50    1
    12    37    36    1
    13    48    49    1
    14    41    43    1
    15    49    50    1
    16    28    27    2
    17    36    27   am
    18    27    26    1
    19    95    93    1
    20    94    93    1
    21    94    96    1
    22    93    90    1
    23    26    29    1
    24    26    25    1
    25    29    30    1
    26    92    91    2
    27    87    86    1
    28    90    91    1
    29    90    89    1
    30    89    83   am
    31    86    85    1
    32    86    88    1
    33    85    82    1
    34    79    78    1
    35    30    31   ar
    36    30    32   ar
    37    81    82    1
    38    31    33   ar
    39    83    82    1
    40    83    84    2
    41    32    34   ar
    42    78    80    1
    43    78    77    1
    44    24    21    1
    45    33    35   ar
    46    34    35   ar
    47    60    59    1
    48    77    74    1
    49    21    22    1
    50    21    20    1
    51    22    23    2
    52    55    52    1
    53    55    56    1
    54    51    52    1
    55    52    53    1
    56    11     9    1
    57    59    61    1
    58    59    58    2
    59     8     9    2
    60     8     7    1
    61     9    10    1
    62    73    74    1
    63    73    71   am
    64    74    75    1
    65    56    57    1
    66    57    58    1
    67    20    14   am
    68    70    71    1
    69    70    69    1
    70     7     6    1
    71    71    72    2
    72    53    54    2
    73    75    76    2
    74    14    15    2
    75    14    13    1
    76    19    17    1
    77    69    64   am
    78     6     5    1
    79    17    16    1
    80    17    18    1
    81    65    64    2
    82    16    13    1
    83    64    63    1
    84     5     2    1
    85    13    12    1
    86    12     3   am
    87    63    62    1
    88    63    66    1
    89     3     2    1
    90     3     4    2
    91     2     1    1
    92    66    68    1
    93    66    67    1
