@<TRIPOS>MOLECULE
tmp/1s1fA01.pdb
 76 70 0 0 0
SMALL
GASTEIGER

@<TRIPOS>ATOM
      1  N         19.3830   39.0240   61.1570 N.3    80  ILE80      -0.1245
      2  CA        19.8240   38.8900   59.7790 C.3    80  ILE80       0.1561
      3  C         18.9250   37.8560   59.0990 C.2    80  ILE80       0.2260
      4  O         18.3690   38.1160   58.0330 O.2    80  ILE80      -0.2867
      5  CB        21.2980   38.4340   59.6910 C.3    80  ILE80       0.0252
      6  CG1       22.2100   39.5120   60.2800 C.3    80  ILE80       0.0019
      7  CG2       21.6700   38.1470   58.2370 C.3    80  ILE80       0.0019
      8  CD1       23.6640   39.1180   60.3380 C.3    80  ILE80       0.0001
      9  N         23.9420   42.9550   56.0050 N.3   172  LEU172     -0.1245
     10  CA        24.6600   42.9970   57.2710 C.3   172  LEU172      0.1561
     11  C         24.5820   44.3890   57.8850 C.2   172  LEU172      0.2260
     12  O         24.4540   44.5370   59.1000 O.2   172  LEU172     -0.2867
     13  CB        26.1230   42.5970   57.0680 C.3   172  LEU172      0.0270
     14  CG        26.3700   41.1710   56.5650 C.3   172  LEU172      0.0019
     15  CD1       27.8540   40.9780   56.3130 C.3   172  LEU172      0.0001
     16  CD2       25.8540   40.1570   57.5780 C.3   172  LEU172      0.0001
     17  N         25.8170   34.7360   52.1940 N.3   234  ILE234     -0.1231
     18  CA        26.2390   35.6780   53.2250 C.3   234  ILE234      0.1692
     19  C         27.2580   35.0130   54.1460 C.2   234  ILE234      0.2592
     20  O         28.2870   35.6020   54.4850 O.2   234  ILE234     -0.2718
     21  CB        25.0370   36.1440   54.0690 C.3   234  ILE234      0.0266
     22  CG1       24.0820   36.9510   53.1900 C.3   234  ILE234      0.0019
     23  CG2       25.5150   36.9610   55.2670 C.3   234  ILE234      0.0020
     24  CD1       22.8010   37.3360   53.8880 C.3   234  ILE234      0.0001
     25  N         26.9720   33.7770   54.5390 N.am  235  GLY235     -0.1957
     26  CA        27.8730   33.0620   55.4270 C.3   235  GLY235      0.1869
     27  C         29.2880   32.8980   54.9070 C.2   235  GLY235      0.2309
     28  O         30.2520   32.9330   55.6740 O.2   235  GLY235     -0.2863
     29  N         32.3690   35.0560   56.1180 N.3   238  ALA238     -0.1245
     30  CA        32.9370   35.0120   57.4650 C.3   238  ALA238      0.1562
     31  C         34.4280   34.6660   57.4990 C.2   238  ALA238      0.2260
     32  O         35.1320   35.0320   58.4430 O.2   238  ALA238     -0.2867
     33  CB        32.1470   34.0290   58.3390 C.3   238  ALA238      0.0290
     34  N         35.8050   34.6220   67.5940 N.3   280  HIS280     -0.1226
     35  CA        35.1510   34.9980   66.3360 C.3   280  HIS280      0.1752
     36  C         34.0750   36.0850   66.3150 C.2   280  HIS280      0.2595
     37  O         33.9360   36.7980   65.3200 O.2   280  HIS280     -0.2718
     38  CB        34.5870   33.7190   65.6870 C.3   280  HIS280      0.0759
     39  CG        34.0900   33.9010   64.2830 C.ar  280  HIS280      0.0818
     40  ND1       32.7500   33.8600   63.9540 N.ar  280  HIS280     -0.2268
     41  CD2       34.7570   34.0630   63.1160 C.ar  280  HIS280      0.1154
     42  CE1       32.6160   33.9820   62.6440 C.ar  280  HIS280      0.1986
     43  NE2       33.8200   34.1070   62.1120 N.ar  280  HIS280     -0.2212
     44  N         33.3220   36.2170   67.4030 N.am  281  ARG281     -0.1980
     45  CA        32.2390   37.1900   67.4580 C.3   281  ARG281      0.1597
     46  C         32.1900   37.9350   68.7790 C.2   281  ARG281      0.2287
     47  O         32.8780   37.5690   69.7430 O.2   281  ARG281     -0.2864
     48  CB        30.8920   36.4750   67.2660 C.3   281  ARG281      0.0334
     49  CG        30.5250   35.5130   68.4160 C.3   281  ARG281      0.0492
     50  CD        29.0230   35.2280   68.4340 C.3   281  ARG281      0.2205
     51  NE        28.2890   36.4820   68.5490 N.pl3 281  ARG281     -0.0865
     52  CZ        27.3070   36.8610   67.7380 C.cat 281  ARG281      0.5346
     53  NH1       26.9110   36.0730   66.7410 N.pl3 281  ARG281      0.1354
     54  NH2       26.7600   38.0590   67.8950 N.pl3 281  ARG281      0.1354
     55  N         27.3810   24.8230   61.7000 N.3   344  CYS344     -0.1235
     56  CA        27.7280   25.5120   60.4640 C.3   344  CYS344      0.1677
     57  C         27.9620   24.6210   59.2470 C.2   344  CYS344      0.2270
     58  O         28.8840   23.8030   59.2360 O.2   344  CYS344     -0.2867
     59  CB        28.9730   26.3750   60.6930 C.3   344  CYS344      0.0956
     60  SG        29.4480   27.3440   59.2510 S.3   344  CYS344     -0.0801
     61  N         29.3050   42.4240   64.7720 N.3   384  LEU384     -0.1231
     62  CA        28.8220   41.1540   65.2960 C.3   384  LEU384      0.1693
     63  C         29.9950   40.1770   65.2120 C.2   384  LEU384      0.2591
     64  O         30.3170   39.4860   66.1800 O.2   384  LEU384     -0.2718
     65  CB        27.6380   40.6460   64.4630 C.3   384  LEU384      0.0284
     66  CG        26.4210   41.5750   64.3680 C.3   384  LEU384      0.0019
     67  CD1       25.3330   40.9030   63.5390 C.3   384  LEU384      0.0001
     68  CD2       25.8980   41.9020   65.7600 C.3   384  LEU384      0.0001
     69  N         30.6440   40.1340   64.0520 N.am  385  ILE385     -0.1980
     70  CA        31.7950   39.2580   63.8480 C.3   385  ILE385      0.1595
     71  C         33.0610   40.1070   63.9490 C.2   385  ILE385      0.2287
     72  O         33.1890   41.1260   63.2700 O.2   385  ILE385     -0.2864
     73  CB        31.7340   38.5690   62.4610 C.3   385  ILE385      0.0276
     74  CG1       30.3960   37.8340   62.3140 C.3   385  ILE385      0.0022
     75  CG2       32.8870   37.5790   62.2970 C.3   385  ILE385      0.0022
     76  CD1       30.1110   36.8260   63.4240 C.3   385  ILE385      0.0001
@<TRIPOS>BOND
     1    17    18    1
     2    22    24    1
     3    22    21    1
     4    18    21    1
     5    18    19    1
     6    21    23    1
     7    19    20    2
     8    19    25   am
     9    25    26    1
    10    27    26    1
    11    27    28    2
    12     9    10    1
    13    29    30    1
    14    15    14    1
    15    14    13    1
    16    14    16    1
    17    13    10    1
    18    10    11    1
    19    30    31    1
    20    30    33    1
    21    31    32    2
    22    11    12    2
    23     4     3    2
    24     7     5    1
    25     3     2    1
    26    58    57    2
    27    57    56    1
    28    60    59    1
    29     5     2    1
    30     5     6    1
    31     2     1    1
    32     6     8    1
    33    56    59    1
    34    56    55    1
    35    43    42   ar
    36    43    41   ar
    37    75    73    1
    38    74    73    1
    39    74    76    1
    40    73    70    1
    41    42    40   ar
    42    41    39   ar
    43    72    71    2
    44    67    66    1
    45    70    71    1
    46    70    69    1
    47    40    39   ar
    48    69    63   am
    49    39    38    1
    50    66    65    1
    51    66    68    1
    52    65    62    1
    53    61    62    1
    54    63    62    1
    55    63    64    2
    56    37    36    2
    57    38    35    1
    58    36    35    1
    59    36    44   am
    60    35    34    1
    61    53    52    1
    62    48    45    1
    63    48    49    1
    64    44    45    1
    65    45    46    1
    66    52    54    1
    67    52    51    2
    68    49    50    1
    69    50    51    1
    70    46    47    2
