@<TRIPOS>MOLECULE
tmp/1s1fA03.pdb
 107 104 0 0 0
SMALL
GASTEIGER

@<TRIPOS>ATOM
      1  N         14.3220   27.2130   67.7770 N.3    64  ARG64      -0.1245
      2  CA        14.6090   28.4970   67.1400 C.3    64  ARG64       0.1563
      3  C         13.3580   29.1500   66.5550 C.2    64  ARG64       0.2260
      4  O         13.2600   30.3740   66.4930 O.2    64  ARG64      -0.2867
      5  CB        15.6360   28.3120   66.0120 C.3    64  ARG64       0.0307
      6  CG        17.0910   28.2810   66.4710 C.3    64  ARG64       0.0489
      7  CD        17.5590   29.6820   66.8300 C.3    64  ARG64       0.2205
      8  NE        18.9460   29.7310   67.2920 N.pl3  64  ARG64      -0.0865
      9  CZ        20.0110   29.5260   66.5190 C.cat  64  ARG64       0.5346
     10  NH1       19.8630   29.2520   65.2300 N.pl3  64  ARG64       0.1354
     11  NH2       21.2300   29.6020   67.0380 N.pl3  64  ARG64       0.1354
     12  N         35.8050   34.6220   67.5940 N.3   280  HIS280     -0.1226
     13  CA        35.1510   34.9980   66.3360 C.3   280  HIS280      0.1752
     14  C         34.0750   36.0850   66.3150 C.2   280  HIS280      0.2595
     15  O         33.9360   36.7980   65.3200 O.2   280  HIS280     -0.2718
     16  CB        34.5870   33.7190   65.6870 C.3   280  HIS280      0.0759
     17  CG        34.0900   33.9010   64.2830 C.ar  280  HIS280      0.0818
     18  ND1       32.7500   33.8600   63.9540 N.ar  280  HIS280     -0.2268
     19  CD2       34.7570   34.0630   63.1160 C.ar  280  HIS280      0.1154
     20  CE1       32.6160   33.9820   62.6440 C.ar  280  HIS280      0.1986
     21  NE2       33.8200   34.1070   62.1120 N.ar  280  HIS280     -0.2212
     22  N         33.3220   36.2170   67.4030 N.am  281  ARG281     -0.1980
     23  CA        32.2390   37.1900   67.4580 C.3   281  ARG281      0.1597
     24  C         32.1900   37.9350   68.7790 C.2   281  ARG281      0.2287
     25  O         32.8780   37.5690   69.7430 O.2   281  ARG281     -0.2864
     26  CB        30.8920   36.4750   67.2660 C.3   281  ARG281      0.0334
     27  CG        30.5250   35.5130   68.4160 C.3   281  ARG281      0.0492
     28  CD        29.0230   35.2280   68.4340 C.3   281  ARG281      0.2205
     29  NE        28.2890   36.4820   68.5490 N.pl3 281  ARG281     -0.0865
     30  CZ        27.3070   36.8610   67.7380 C.cat 281  ARG281      0.5346
     31  NH1       26.9110   36.0730   66.7410 N.pl3 281  ARG281      0.1354
     32  NH2       26.7600   38.0590   67.8950 N.pl3 281  ARG281      0.1354
     33  N         26.9980   37.0210   72.1360 N.3   284  VAL284     -0.1231
     34  CA        26.3050   35.8370   71.6290 C.3   284  VAL284      0.1692
     35  C         25.3290   36.2340   70.5240 C.2   284  VAL284      0.2593
     36  O         24.9120   37.3920   70.4450 O.2   284  VAL284     -0.2718
     37  CB        25.5480   35.1050   72.7720 C.3   284  VAL284      0.0266
     38  CG1       26.5420   34.4970   73.7490 C.3   284  VAL284      0.0020
     39  CG2       24.6280   36.0830   73.5100 C.3   284  VAL284      0.0020
     40  N         24.9500   35.2660   69.6920 N.am  285  GLY285     -0.1942
     41  CA        24.0780   35.5390   68.5600 C.3   285  GLY285      0.2014
     42  C         22.5850   35.2880   68.6500 C.2   285  GLY285      0.2638
     43  O         21.8220   36.1890   68.9960 O.2   285  GLY285     -0.2714
     44  N         22.1620   34.0730   68.3100 N.am  286  LEU286     -0.1977
     45  CA        20.7440   33.7270   68.3320 C.3   286  LEU286      0.1596
     46  C         20.4390   32.7140   69.4160 C.2   286  LEU286      0.2287
     47  O         21.0550   31.6500   69.4800 O.2   286  LEU286     -0.2864
     48  CB        20.3020   33.1540   66.9820 C.3   286  LEU286      0.0297
     49  CG        20.3760   34.0680   65.7600 C.3   286  LEU286      0.0022
     50  CD1       19.8030   33.3280   64.5570 C.3   286  LEU286      0.0001
     51  CD2       19.5930   35.3480   66.0200 C.3   286  LEU286      0.0001
     52  N         17.7040   30.2790   71.8850 N.3   288  ARG288     -0.1245
     53  CA        16.7630   29.1900   71.6770 C.3   288  ARG288      0.1563
     54  C         15.7460   29.3130   72.8090 C.2   288  ARG288      0.2260
     55  O         16.0830   29.7540   73.9090 O.2   288  ARG288     -0.2867
     56  CB        17.4670   27.8280   71.7370 C.3   288  ARG288      0.0307
     57  CG        18.3050   27.5130   70.5000 C.3   288  ARG288      0.0489
     58  CD        19.1460   26.2530   70.6750 C.3   288  ARG288      0.2205
     59  NE        19.9500   25.9550   69.4810 N.pl3 288  ARG288     -0.0865
     60  CZ        21.0270   26.6430   69.1050 C.cat 288  ARG288      0.5346
     61  NH1       21.4560   27.6730   69.8270 N.pl3 288  ARG288      0.1354
     62  NH2       21.6650   26.3110   67.9880 N.pl3 288  ARG288      0.1354
     63  N         20.7390   31.2790   75.8320 N.3   308  TYR308     -0.1227
     64  CA        21.8730   31.4650   74.9280 C.3   308  TYR308      0.1736
     65  C         23.0030   30.5340   75.3150 C.2   308  TYR308      0.2595
     66  O         23.1200   30.1210   76.4750 O.2   308  TYR308     -0.2718
     67  CB        22.4570   32.8780   75.0300 C.3   308  TYR308      0.0548
     68  CG        21.7520   33.9530   74.2470 C.ar  308  TYR308     -0.0200
     69  CD1       20.9700   34.9150   74.8920 C.ar  308  TYR308     -0.0009
     70  CD2       21.9060   34.0470   72.8640 C.ar  308  TYR308     -0.0009
     71  CE1       20.3660   35.9480   74.1730 C.ar  308  TYR308      0.0417
     72  CE2       21.3090   35.0710   72.1360 C.ar  308  TYR308      0.0417
     73  CZ        20.5420   36.0200   72.7970 C.ar  308  TYR308      0.1957
     74  OH        19.9730   37.0450   72.0830 O.3   308  TYR308     -0.2866
     75  N         23.8340   30.2030   74.3320 N.am  309  VAL309     -0.1966
     76  CA        25.0360   29.4170   74.5840 C.3   309  VAL309      0.1727
     77  C         26.1660   30.3020   74.0730 C.2   309  VAL309      0.2617
     78  O         25.9520   31.1480   73.2010 O.2   309  VAL309     -0.2715
     79  CB        25.0820   28.0780   73.7960 C.3   309  VAL309      0.0290
     80  CG1       23.8710   27.2380   74.1400 C.3   309  VAL309      0.0023
     81  CG2       25.1630   28.3300   72.2840 C.3   309  VAL309      0.0023
     82  N         27.3530   30.1500   74.6520 N.am  310  SER310     -0.1936
     83  CA        28.5180   30.8920   74.1770 C.3   310  SER310      0.2055
     84  C         29.5230   29.8580   73.7010 C.2   310  SER310      0.2643
     85  O         30.1290   29.1540   74.5130 O.2   310  SER310     -0.2714
     86  CB        29.1590   31.7360   75.2820 C.3   310  SER310      0.2130
     87  OG        30.3940   32.2770   74.8190 O.3   310  SER310     -0.2179
     88  N         29.6770   29.7390   72.3830 N.am  311  TYR311     -0.1973
     89  CA        30.6230   28.7780   71.8320 C.3   311  TYR311      0.1639
     90  C         32.0440   29.2150   72.1870 C.2   311  TYR311      0.2290
     91  O         32.9200   28.3790   72.3980 O.2   311  TYR311     -0.2864
     92  CB        30.4530   28.6780   70.3130 C.3   311  TYR311      0.0560
     93  CG        29.1660   28.0090   69.8750 C.ar  311  TYR311     -0.0198
     94  CD1       28.2870   28.6470   68.9980 C.ar  311  TYR311     -0.0009
     95  CD2       28.8590   26.6990   70.2740 C.ar  311  TYR311     -0.0009
     96  CE1       27.1440   28.0030   68.5170 C.ar  311  TYR311      0.0417
     97  CE2       27.7180   26.0440   69.7950 C.ar  311  TYR311      0.0417
     98  CZ        26.8700   26.6990   68.9130 C.ar  311  TYR311      0.1957
     99  OH        25.7820   26.0450   68.3780 O.3   311  TYR311     -0.2866
    100  N         30.6440   40.1340   64.0520 N.3   385  ILE385     -0.1245
    101  CA        31.7950   39.2580   63.8480 C.3   385  ILE385      0.1561
    102  C         33.0610   40.1070   63.9490 C.2   385  ILE385      0.2260
    103  O         33.1890   41.1260   63.2700 O.2   385  ILE385     -0.2867
    104  CB        31.7340   38.5690   62.4610 C.3   385  ILE385      0.0252
    105  CG1       30.3960   37.8340   62.3140 C.3   385  ILE385      0.0019
    106  CG2       32.8870   37.5790   62.2970 C.3   385  ILE385      0.0019
    107  CD1       30.1110   36.8260   63.4240 C.3   385  ILE385      0.0001
@<TRIPOS>BOND
     1    21    20   ar
     2    21    19   ar
     3   106   104    1
     4   105   104    1
     5   105   107    1
     6   104   101    1
     7    20    18   ar
     8    19    17   ar
     9   103   102    2
    10   101   102    1
    11   101   100    1
    12    18    17   ar
    13    17    16    1
    14    50    49    1
    15    10     9    1
    16    15    14    2
    17    16    13    1
    18    49    51    1
    19    49    48    1
    20     5     6    1
    21     5     2    1
    22    14    13    1
    23    14    22   am
    24    13    12    1
    25     6     7    1
    26     4     3    2
    27     9    11    1
    28     9     8    2
    29     3     2    1
    30    31    30    1
    31     7     8    1
    32    48    45    1
    33     2     1    1
    34    26    23    1
    35    26    27    1
    36    22    23    1
    37    23    24    1
    38    30    32    1
    39    30    29    2
    40    62    60    1
    41    44    45    1
    42    44    42   am
    43    45    46    1
    44    99    98    1
    45    27    28    1
    46    28    29    1
    47    96    98   ar
    48    96    94   ar
    49    41    42    1
    50    41    40    1
    51    42    43    2
    52    24    25    2
    53    98    97   ar
    54    94    93   ar
    55    60    59    2
    56    60    61    1
    57    46    47    2
    58    59    58    1
    59    40    35   am
    60    97    95   ar
    61    93    95   ar
    62    93    92    1
    63    92    89    1
    64    36    35    2
    65    57    58    1
    66    57    56    1
    67    35    34    1
    68    34    33    1
    69    34    37    1
    70    53    56    1
    71    53    52    1
    72    53    54    1
    73    89    90    1
    74    89    88    1
    75    74    73    1
    76    72    73   ar
    77    72    70   ar
    78    90    91    2
    79    81    79    1
    80    88    84   am
    81    37    39    1
    82    37    38    1
    83    73    71   ar
    84    54    55    2
    85    70    68   ar
    86    78    77    2
    87    84    83    1
    88    84    85    2
    89    79    80    1
    90    79    76    1
    91    77    76    1
    92    77    82   am
    93    71    69   ar
    94    83    82    1
    95    83    86    1
    96    68    69   ar
    97    68    67    1
    98    75    76    1
    99    75    65   am
   100    87    86    1
   101    64    67    1
   102    64    65    1
   103    64    63    1
   104    65    66    2
