@<TRIPOS>MOLECULE
tmp/1s1mB00.pdb
 85 79 0 0 0
SMALL
GASTEIGER

@<TRIPOS>ATOM
      1  N         20.3990   -2.2620   -8.0450 N.3    15  SER15      -0.1202
      2  CA        21.8160   -2.5280   -8.1740 C.3    15  SER15       0.2020
      3  C         22.3480   -3.4520   -7.1060 C.2    15  SER15       0.2619
      4  O         23.4370   -3.2540   -6.5930 O.2    15  SER15      -0.2717
      5  CB        22.6090   -1.2380   -8.2100 C.3    15  SER15       0.2103
      6  OG        22.0770   -0.3990   -9.2190 O.3    15  SER15      -0.2182
      7  N         21.5980   -4.4900   -6.8080 N.am   16  LEU16      -0.1965
      8  CA        21.9900   -5.4430   -5.7940 C.3    16  LEU16       0.1728
      9  C         22.8310   -6.6330   -6.2660 C.2    16  LEU16       0.2616
     10  O         23.3700   -7.3720   -5.4300 O.2    16  LEU16      -0.2715
     11  CB        20.7300   -5.9700   -5.1090 C.3    16  LEU16       0.0311
     12  CG        20.2360   -5.0330   -4.0260 C.3    16  LEU16       0.0022
     13  CD1       18.9100   -5.5570   -3.5000 C.3    16  LEU16       0.0001
     14  CD2       21.2580   -5.0120   -2.9010 C.3    16  LEU16       0.0001
     15  N         22.8960   -6.8670   -7.5890 N.am   17  GLY17      -0.1955
     16  CA        23.6500   -8.0060   -8.1240 C.3    17  GLY17       0.1869
     17  C         22.7780   -9.2360   -8.3730 C.2    17  GLY17       0.2309
     18  O         23.2330  -10.3810   -8.4200 O.2    17  GLY17      -0.2863
     19  N         23.4580  -11.1490  -11.6470 N.3    20  ILE20      -0.1245
     20  CA        24.6050  -11.9780  -11.3890 C.3    20  ILE20       0.1561
     21  C         24.3520  -13.0970  -10.4130 C.2    20  ILE20       0.2260
     22  O         24.8580  -14.2060  -10.5660 O.2    20  ILE20      -0.2867
     23  CB        25.8230  -11.1750  -11.0180 C.3    20  ILE20       0.0252
     24  CG1       26.5800  -10.8340  -12.3000 C.3    20  ILE20       0.0019
     25  CG2       26.7280  -12.0130  -10.1270 C.3    20  ILE20       0.0019
     26  CD1       26.8710   -9.3450  -12.4400 C.3    20  ILE20       0.0001
     27  N         22.4440   -9.1300    0.9390 N.3   211  ARG211     -0.1245
     28  CA        23.6400   -8.5030    0.4060 C.3   211  ARG211      0.1563
     29  C         24.2230   -7.5340    1.4080 C.2   211  ARG211      0.2260
     30  O         23.5540   -6.5800    1.8100 O.2   211  ARG211     -0.2867
     31  CB        23.4020   -7.7790   -0.9260 C.3   211  ARG211      0.0307
     32  CG        22.8850   -8.6890   -2.0500 C.3   211  ARG211      0.0489
     33  CD        23.9560   -9.2220   -3.0110 C.3   211  ARG211      0.2205
     34  NE        24.8070   -8.1380   -3.4670 N.pl3 211  ARG211     -0.0865
     35  CZ        25.9150   -7.7940   -2.8290 C.cat 211  ARG211      0.5346
     36  NH1       26.3700   -8.4460   -1.7580 N.pl3 211  ARG211      0.1354
     37  NH2       26.5910   -6.7620   -3.2860 N.pl3 211  ARG211      0.1354
     38  N         25.2890  -12.8870    1.0830 N.3   238  LEU238     -0.1231
     39  CA        25.9650  -12.6300   -0.1610 C.3   238  LEU238      0.1693
     40  C         26.7970  -11.3630   -0.0060 C.2   238  LEU238      0.2592
     41  O         26.3550  -10.2350   -0.2850 O.2   238  LEU238     -0.2718
     42  CB        25.0940  -12.6470   -1.4330 C.3   238  LEU238      0.0284
     43  CG        25.8720  -12.3120   -2.7210 C.3   238  LEU238      0.0019
     44  CD1       27.1010  -13.1930   -2.8370 C.3   238  LEU238      0.0001
     45  CD2       25.0240  -12.5210   -3.9680 C.3   238  LEU238      0.0001
     46  N         28.0010  -11.5920    0.5280 N.am  239  LYS239     -0.1966
     47  CA        28.9700  -10.5540    0.7880 C.3   239  LYS239      0.1728
     48  C         29.5130   -9.9800   -0.5120 C.2   239  LYS239      0.2616
     49  O         29.2940  -10.5180   -1.5820 O.2   239  LYS239     -0.2715
     50  CB        30.0890  -11.1010    1.6530 C.3   239  LYS239      0.0311
     51  CG        31.2620  -11.5310    0.7980 C.3   239  LYS239      0.0038
     52  CD        32.4170  -12.1160    1.5880 C.3   239  LYS239      0.0206
     53  CE        33.1890  -13.1630    0.8020 C.3   239  LYS239      0.1093
     54  NZ        33.6610  -14.2870    1.6280 N.3   239  LYS239     -0.1314
     55  N         30.2200   -8.8730   -0.4390 N.am  240  ASP240     -0.1957
     56  CA        30.7940   -8.2880   -1.6270 C.3   240  ASP240      0.1840
     57  C         32.0520   -9.0210   -1.9730 C.2   240  ASP240      0.2621
     58  O         32.9180   -9.1680   -1.1100 O.2   240  ASP240     -0.2715
     59  CB        31.1690   -6.8420   -1.3840 C.3   240  ASP240      0.1450
     60  CG        29.9290   -6.0380   -1.4650 C.2   240  ASP240      0.3671
     61  OD1       28.8930   -6.5140   -1.8880 O.co2 240  ASP240     -0.2456
     62  OD2       30.0750   -4.8170   -1.0100 O.co2 240  ASP240     -0.2456
     63  N         32.1110   -9.4990   -3.2090 N.am  241  VAL241     -0.1977
     64  CA        33.2520  -10.2590   -3.6290 C.3   241  VAL241      0.1596
     65  C         34.0900   -9.4720   -4.6080 C.2   241  VAL241      0.2287
     66  O         33.5830   -8.5410   -5.2410 O.2   241  VAL241     -0.2864
     67  CB        32.8560  -11.6050   -4.2150 C.3   241  VAL241      0.0276
     68  CG1       32.1680  -12.4680   -3.1780 C.3   241  VAL241      0.0022
     69  CG2       31.9250  -11.3730   -5.3840 C.3   241  VAL241      0.0022
     70  N         33.2770  -12.0460   -9.4070 N.3   244  ILE244     -0.1245
     71  CA        32.0140  -12.7150   -9.5460 C.3   244  ILE244      0.1561
     72  C         32.1590  -14.2080   -9.7650 C.2   244  ILE244      0.2260
     73  O         31.2280  -14.9950   -9.5540 O.2   244  ILE244     -0.2867
     74  CB        31.2080  -12.0560  -10.6490 C.3   244  ILE244      0.0252
     75  CG1       31.8300  -12.3200  -12.0150 C.3   244  ILE244      0.0019
     76  CG2       31.2100  -10.5530  -10.4050 C.3   244  ILE244      0.0019
     77  CD1       31.0720  -11.6150  -13.1360 C.3   244  ILE244      0.0001
     78  N         31.0060  -16.3420   -6.8540 N.3   247  ILE247     -0.1245
     79  CA        29.6580  -16.4270   -6.3390 C.3   247  ILE247      0.1561
     80  C         29.0500  -17.8280   -6.3070 C.2   247  ILE247      0.2260
     81  O         28.5240  -18.2750   -5.2940 O.2   247  ILE247     -0.2867
     82  CB        28.8130  -15.3660   -6.9970 C.3   247  ILE247      0.0252
     83  CG1       29.4050  -14.0100   -6.6440 C.3   247  ILE247      0.0019
     84  CG2       27.3540  -15.4530   -6.5920 C.3   247  ILE247      0.0019
     85  CD1       28.7490  -12.8730   -7.4230 C.3   247  ILE247      0.0001
@<TRIPOS>BOND
     1    77    75    1
     2    26    24    1
     3    24    23    1
     4    75    74    1
     5    19    20    1
     6    20    23    1
     7    20    21    1
     8    23    25    1
     9    74    76    1
    10    74    71    1
    11    22    21    2
    12    72    73    2
    13    72    71    1
    14    71    70    1
    15     6     5    1
    16    18    17    2
    17    17    16    1
    18     5     2    1
    19     2     1    1
    20     2     3    1
    21    16    15    1
    22    15     9   am
    23    85    83    1
    24     3     7   am
    25     3     4    2
    26    82    83    1
    27    82    84    1
    28    82    79    1
    29    78    79    1
    30     7     8    1
    31    79    80    1
    32    80    81    2
    33     9     8    1
    34     9    10    2
    35     8    11    1
    36    69    67    1
    37    66    65    2
    38    11    12    1
    39    65    64    1
    40    67    64    1
    41    67    68    1
    42    12    13    1
    43    12    14    1
    44    45    43    1
    45    64    63    1
    46    34    33    1
    47    34    35    2
    48    37    35    1
    49    63    57   am
    50    33    32    1
    51    44    43    1
    52    35    36    1
    53    43    42    1
    54    32    31    1
    55    57    56    1
    56    57    58    2
    57    61    60   ar
    58    56    59    1
    59    56    55    1
    60    49    48    2
    61    60    59    1
    62    60    62   ar
    63    42    39    1
    64    31    28    1
    65    48    55   am
    66    48    47    1
    67    41    40    2
    68    39    40    1
    69    39    38    1
    70    40    46   am
    71    28    27    1
    72    28    29    1
    73    46    47    1
    74    47    50    1
    75    51    52    1
    76    51    50    1
    77    53    52    1
    78    53    54    1
    79    29    30    2
