@<TRIPOS>MOLECULE
tmp/1s1pA01.pdb
 94 90 0 0 0
SMALL
GASTEIGER

@<TRIPOS>ATOM
      1  N         28.6480  -33.6610   67.1800 N.3    49  LEU49      -0.1245
      2  CA        27.2850  -33.5700   66.6810 C.3    49  LEU49       0.1561
      3  C         27.0110  -34.4920   65.4990 C.2    49  LEU49       0.2260
      4  O         25.8780  -34.9220   65.2990 O.2    49  LEU49      -0.2867
      5  CB        27.0040  -32.1290   66.2440 C.3    49  LEU49       0.0270
      6  CG        25.6170  -31.8030   65.6880 C.3    49  LEU49       0.0019
      7  CD1       24.5970  -31.8680   66.7950 C.3    49  LEU49       0.0001
      8  CD2       25.6190  -30.4350   65.0320 C.3    49  LEU49       0.0001
      9  N         30.3670  -29.7360   71.2890 N.3    81  TRP81      -0.1227
     10  CA        28.9690  -29.4080   71.0880 C.3    81  TRP81       0.1737
     11  C         28.4570  -28.4660   72.1980 C.2    81  TRP81       0.2596
     12  O         29.0250  -28.3740   73.2870 O.2    81  TRP81      -0.2718
     13  CB        28.1010  -30.6650   70.8840 C.3    81  TRP81       0.0564
     14  CG        26.7050  -30.2780   70.5610 C.ar   81  TRP81       0.0003
     15  CD1       25.5830  -30.5980   71.2620 C.ar   81  TRP81       0.0946
     16  CD2       26.2860  -29.3960   69.5120 C.ar   81  TRP81       0.0152
     17  NE1       24.4890  -29.9890   70.6970 N.ar   81  TRP81      -0.2442
     18  CE2       24.8950  -29.2360   69.6290 C.ar   81  TRP81       0.0810
     19  CE3       26.9520  -28.7120   68.4880 C.ar   81  TRP81       0.0012
     20  CZ2       24.1580  -28.4410   68.7530 C.ar   81  TRP81       0.0191
     21  CZ3       26.2190  -27.9190   67.6300 C.ar   81  TRP81       0.0001
     22  CH2       24.8380  -27.7950   67.7650 C.ar   81  TRP81       0.0015
     23  N         27.3770  -27.7660   71.8860 N.am   82  SER82      -0.1952
     24  CA        26.8880  -26.6410   72.6660 C.3    82  SER82       0.1924
     25  C         26.3040  -26.9670   74.0290 C.2    82  SER82       0.2314
     26  O         26.1030  -26.0660   74.8430 O.2    82  SER82      -0.2863
     27  CB        25.8860  -25.8830   71.8150 C.3    82  SER82       0.2116
     28  OG        26.4820  -25.5680   70.5670 O.3    82  SER82      -0.2180
     29  N         29.7460  -23.7590   68.2130 N.3   113  SER113     -0.1217
     30  CA        28.7930  -22.6830   68.0760 C.3   113  SER113      0.1889
     31  C         28.7970  -21.8650   69.3560 C.2   113  SER113      0.2288
     32  O         29.0090  -22.4170   70.4340 O.2   113  SER113     -0.2866
     33  CB        27.4190  -23.3200   67.8520 C.3   113  SER113      0.2089
     34  OG        26.3640  -22.4610   68.2230 O.3   113  SER113     -0.2183
     35  N         26.1830  -20.6110   70.5980 N.3   115  MET115     -0.1245
     36  CA        24.8280  -20.6980   71.1280 C.3   115  MET115      0.1570
     37  C         24.6910  -21.8410   72.1300 C.2   115  MET115      0.2261
     38  O         24.2450  -22.9400   71.8030 O.2   115  MET115     -0.2867
     39  CB        23.8350  -20.8340   69.9740 C.3   115  MET115      0.0387
     40  CG        23.7630  -19.5830   69.1150 C.3   115  MET115      0.0595
     41  SD        22.7280  -19.7770   67.6570 S.3   115  MET115     -0.1393
     42  CE        23.7980  -20.7370   66.6340 C.3   115  MET115      0.0692
     43  N         23.6920  -24.4420   74.9540 N.3   117  LEU117     -0.1245
     44  CA        22.4640  -25.1730   75.2310 C.3   117  LEU117      0.1561
     45  C         22.5180  -25.8430   76.5900 C.2   117  LEU117      0.2260
     46  O         23.5850  -26.1140   77.1380 O.2   117  LEU117     -0.2867
     47  CB        22.2290  -26.2420   74.1660 C.3   117  LEU117      0.0270
     48  CG        22.1570  -25.7050   72.7380 C.3   117  LEU117      0.0019
     49  CD1       21.9670  -26.8520   71.7580 C.3   117  LEU117      0.0001
     50  CD2       21.0600  -24.6560   72.5600 C.3   117  LEU117      0.0001
     51  N         20.1130  -31.6520   71.2110 N.3   124  SER124     -0.1217
     52  CA        19.3570  -30.4460   70.9350 C.3   124  SER124      0.1889
     53  C         18.1130  -30.3870   71.8060 C.2   124  SER124      0.2288
     54  O         17.0120  -30.7150   71.3610 O.2   124  SER124     -0.2866
     55  CB        18.9770  -30.4050   69.4570 C.3   124  SER124      0.2089
     56  OG        18.4550  -29.1370   69.1090 O.3   124  SER124     -0.2183
     57  N         15.4040  -24.2650   70.7920 N.3   132  VAL132     -0.1245
     58  CA        16.3370  -24.9820   71.6270 C.3   132  VAL132      0.1561
     59  C         16.3780  -24.3240   73.0040 C.2   132  VAL132      0.2260
     60  O         16.3010  -23.1000   73.1200 O.2   132  VAL132     -0.2867
     61  CB        17.7390  -25.0720   70.9650 C.3   132  VAL132      0.0252
     62  CG1       17.6240  -25.6210   69.5580 C.3   132  VAL132      0.0019
     63  CG2       18.4180  -23.7400   70.9000 C.3   132  VAL132      0.0019
     64  N         16.8150  -26.8680   58.6270 N.3   222  TRP222     -0.1241
     65  CA        17.4340  -25.5640   58.8380 C.3   222  TRP222      0.1605
     66  C         17.4270  -24.6160   57.6500 C.2   222  TRP222      0.2264
     67  O         17.6430  -23.4240   57.8320 O.2   222  TRP222     -0.2867
     68  CB        18.8990  -25.7790   59.2520 C.3   222  TRP222      0.0550
     69  CG        19.0810  -26.7800   60.3750 C.ar  222  TRP222      0.0003
     70  CD1       18.5040  -26.7350   61.6160 C.ar  222  TRP222      0.0946
     71  CD2       19.8930  -27.9570   60.3580 C.ar  222  TRP222      0.0152
     72  NE1       18.9100  -27.8110   62.3660 N.ar  222  TRP222     -0.2442
     73  CE2       19.7580  -28.5810   61.6160 C.ar  222  TRP222      0.0810
     74  CE3       20.7220  -28.5520   59.4070 C.ar  222  TRP222      0.0012
     75  CZ2       20.4260  -29.7620   61.9450 C.ar  222  TRP222      0.0191
     76  CZ3       21.3800  -29.7270   59.7330 C.ar  222  TRP222      0.0001
     77  CH2       21.2280  -30.3180   60.9910 C.ar  222  TRP222      0.0015
     78  N         14.7500  -22.2420   65.2940 N.3   305  SER305     -0.1202
     79  CA        15.4070  -23.1180   66.2730 C.3   305  SER305      0.2020
     80  C         16.5230  -22.4180   67.0030 C.2   305  SER305      0.2618
     81  O         16.7360  -22.6790   68.1920 O.2   305  SER305     -0.2717
     82  CB        15.9710  -24.3780   65.6010 C.3   305  SER305      0.2103
     83  OG        14.9420  -25.2690   65.2140 O.3   305  SER305     -0.2182
     84  N         17.2320  -21.5350   66.3040 N.am  306  PHE306     -0.1975
     85  CA        18.3620  -20.8110   66.8760 C.3   306  PHE306      0.1639
     86  C         18.4160  -19.2860   66.5810 C.2   306  PHE306      0.2290
     87  O         19.2160  -18.5660   67.1830 O.2   306  PHE306     -0.2864
     88  CB        19.6690  -21.5030   66.4500 C.3   306  PHE306      0.0560
     89  CG        19.7700  -21.7700   64.9690 C.ar  306  PHE306     -0.0200
     90  CD1       19.9560  -20.7270   64.0910 C.ar  306  PHE306     -0.0042
     91  CD2       19.6820  -23.0600   64.4600 C.ar  306  PHE306     -0.0042
     92  CE1       20.0540  -20.9610   62.7310 C.ar  306  PHE306     -0.0003
     93  CE2       19.7820  -23.2900   63.0920 C.ar  306  PHE306     -0.0003
     94  CZ        19.9650  -22.2380   62.2410 C.ar  306  PHE306     -0.0000
@<TRIPOS>BOND
     1    66    67    2
     2    66    65    1
     3    64    65    1
     4    65    68    1
     5    68    69    1
     6    74    76   ar
     7    74    71   ar
     8    76    77   ar
     9    71    69   ar
    10    71    73   ar
    11    69    70   ar
    12    77    75   ar
    13    73    75   ar
    14    73    72   ar
    15    70    72   ar
    16    94    92   ar
    17    94    93   ar
    18    92    90   ar
    19    93    91   ar
    20    90    89   ar
    21    91    89   ar
    22    89    88    1
    23     8     6    1
    24    83    82    1
    25    78    79    1
    26     4     3    2
    27     3     2    1
    28    82    79    1
    29     6     5    1
    30     6     7    1
    31     5     2    1
    32    79    80    1
    33    84    85    1
    34    84    80   am
    35    88    85    1
    36    86    85    1
    37    86    87    2
    38    42    41    1
    39     2     1    1
    40    80    81    2
    41    21    22   ar
    42    21    19   ar
    43    41    40    1
    44    22    20   ar
    45    33    30    1
    46    33    34    1
    47    30    29    1
    48    30    31    1
    49    19    16   ar
    50    20    18   ar
    51    56    55    1
    52    40    39    1
    53    31    32    2
    54    55    52    1
    55    16    18   ar
    56    16    14   ar
    57    62    61    1
    58    18    17   ar
    59    39    36    1
    60    14    13    1
    61    14    15   ar
    62    28    27    1
    63    35    36    1
    64    17    15   ar
    65    57    58    1
    66    13    10    1
    67    63    61    1
    68    52    51    1
    69    52    53    1
    70    61    58    1
    71    10     9    1
    72    10    11    1
    73    36    37    1
    74    54    53    2
    75    58    59    1
    76    49    48    1
    77    38    37    2
    78    27    24    1
    79    23    11   am
    80    23    24    1
    81    11    12    2
    82    50    48    1
    83    24    25    1
    84    48    47    1
    85    59    60    2
    86    25    26    2
    87    47    44    1
    88    43    44    1
    89    44    45    1
    90    45    46    2
