@<TRIPOS>MOLECULE
tmp/1s20G00.pdb
 82 77 0 0 0
SMALL
GASTEIGER

@<TRIPOS>ATOM
      1  N         49.8930   73.2670   42.3980 N.3    42  HIS42      -0.1241
      2  CA        50.4450   74.0770   41.3240 C.3    42  HIS42       0.1621
      3  C         51.1080   73.2340   40.2490 C.2    42  HIS42       0.2264
      4  O         51.9400   73.7150   39.4790 O.2    42  HIS42      -0.2867
      5  CB        51.4200   75.0980   41.9160 C.3    42  HIS42       0.0745
      6  CG        50.7350   76.2110   42.6450 C.ar   42  HIS42       0.0817
      7  ND1       50.3160   77.3610   42.0120 N.ar   42  HIS42      -0.2268
      8  CD2       50.3350   76.3240   43.9330 C.ar   42  HIS42       0.1154
      9  CE1       49.6880   78.1350   42.8790 C.ar   42  HIS42       0.1986
     10  NE2       49.6850   77.5280   44.0520 N.ar   42  HIS42      -0.2212
     11  N         46.8650   72.4000   38.4300 N.3    46  ARG46      -0.1245
     12  CA        46.7520   73.7350   37.8570 C.3    46  ARG46       0.1563
     13  C         46.7900   73.7520   36.3340 C.2    46  ARG46       0.2260
     14  O         46.4370   74.7550   35.7090 O.2    46  ARG46      -0.2867
     15  CB        47.8610   74.6410   38.4070 C.3    46  ARG46       0.0307
     16  CG        47.6960   76.0990   38.0400 C.3    46  ARG46       0.0489
     17  CD        46.3660   76.6270   38.5530 C.3    46  ARG46       0.2205
     18  NE        46.3160   76.6490   40.0120 N.pl3  46  ARG46      -0.0865
     19  CZ        46.8350   77.6110   40.7690 C.cat  46  ARG46       0.5346
     20  NH1       46.7430   77.5330   42.0890 N.pl3  46  ARG46       0.1354
     21  NH2       47.4230   78.6610   40.2100 N.pl3  46  ARG46       0.1354
     22  N         51.5030   83.9240   35.4260 N.3   112  HIS112     -0.1241
     23  CA        51.5980   83.1290   36.6470 C.3   112  HIS112      0.1621
     24  C         52.7180   82.1110   36.4950 C.2   112  HIS112      0.2264
     25  O         52.6980   81.3130   35.5640 O.2   112  HIS112     -0.2867
     26  CB        50.2780   82.4020   36.8940 C.3   112  HIS112      0.0745
     27  CG        50.1710   81.7990   38.2580 C.ar  112  HIS112      0.0817
     28  ND1       51.0690   80.8700   38.7360 N.ar  112  HIS112     -0.2268
     29  CD2       49.2870   82.0190   39.2600 C.ar  112  HIS112      0.1154
     30  CE1       50.7450   80.5450   39.9750 C.ar  112  HIS112      0.1986
     31  NE2       49.6680   81.2290   40.3170 N.ar  112  HIS112     -0.2212
     32  N         50.1530   89.4140   42.1760 N.3   135  SER135     -0.1217
     33  CA        49.0090   88.7390   41.5840 C.3   135  SER135      0.1889
     34  C         47.8330   89.6920   41.5620 C.2   135  SER135      0.2288
     35  O         47.9750   90.8710   41.8750 O.2   135  SER135     -0.2866
     36  CB        48.6470   87.5290   42.4370 C.3   135  SER135      0.2089
     37  OG        48.2500   87.9430   43.7310 O.3   135  SER135     -0.2183
     38  N         43.2210   89.3570   45.6190 N.3   138  VAL138     -0.1245
     39  CA        42.4600   88.1820   46.0440 C.3   138  VAL138      0.1561
     40  C         42.3320   88.1240   47.5640 C.2   138  VAL138      0.2260
     41  O         41.7570   87.1800   48.1120 O.2   138  VAL138     -0.2867
     42  CB        43.1370   86.8740   45.5860 C.3   138  VAL138      0.0252
     43  CG1       43.1890   86.8050   44.0660 C.3   138  VAL138      0.0019
     44  CG2       44.5290   86.7830   46.1810 C.3   138  VAL138      0.0019
     45  N         48.4450   87.6950   46.9650 N.3   150  THR150     -0.1218
     46  CA        49.0510   86.6490   47.7800 C.3   150  THR150      0.1862
     47  C         50.5680   86.7570   47.7500 C.2   150  THR150      0.2287
     48  O         51.2420   86.2730   48.6550 O.2   150  THR150     -0.2866
     49  CB        48.6190   85.2390   47.3150 C.3   150  THR150      0.1770
     50  OG1       48.6700   85.1590   45.8830 O.3   150  THR150     -0.2211
     51  CG2       47.2120   84.9370   47.8000 C.3   150  THR150      0.0375
     52  N         45.7520   78.9760   51.4080 N.3   169  SER169     -0.1202
     53  CA        45.4860   79.2770   50.0080 C.3   169  SER169      0.2020
     54  C         44.0390   78.8660   49.7300 C.2   169  SER169      0.2619
     55  O         43.5010   77.9840   50.4030 O.2   169  SER169     -0.2717
     56  CB        46.4370   78.4850   49.1040 C.3   169  SER169      0.2103
     57  OG        46.0740   77.1170   49.0370 O.3   169  SER169     -0.2182
     58  N         43.3940   79.4920   48.7520 N.am  170  TYR170     -0.1961
     59  CA        42.0220   79.1200   48.4450 C.3   170  TYR170      0.1771
     60  C         41.9250   77.6430   48.0970 C.2   170  TYR170      0.2620
     61  O         40.8970   77.0080   48.3300 O.2   170  TYR170     -0.2715
     62  CB        41.4610   79.9660   47.2980 C.3   170  TYR170      0.0574
     63  CG        41.0460   81.3580   47.7290 C.ar  170  TYR170     -0.0198
     64  CD1       41.8810   82.4500   47.5200 C.ar  170  TYR170     -0.0009
     65  CD2       39.8350   81.5720   48.3900 C.ar  170  TYR170     -0.0009
     66  CE1       41.5270   83.7190   47.9540 C.ar  170  TYR170      0.0417
     67  CE2       39.4720   82.8410   48.8340 C.ar  170  TYR170      0.0417
     68  CZ        40.3250   83.9090   48.6110 C.ar  170  TYR170      0.1957
     69  OH        39.9890   85.1680   49.0510 O.3   170  TYR170     -0.2866
     70  N         43.0000   77.0910   47.5470 N.am  171  GLY171     -0.1954
     71  CA        42.9990   75.6830   47.2060 C.3   171  GLY171      0.1869
     72  C         42.8400   74.8410   48.4630 C.2   171  GLY171      0.2309
     73  O         42.0750   73.8720   48.4770 O.2   171  GLY171     -0.2863
     74  N         44.3620   87.1960   35.3390 N.3   242  GLU242     -0.1245
     75  CA        45.6750   87.2470   35.9650 C.3   242  GLU242      0.1567
     76  C         46.8260   86.9880   34.9990 C.2   242  GLU242      0.2260
     77  O         47.2030   85.8410   34.7590 O.2   242  GLU242     -0.2867
     78  CB        45.7590   86.2430   37.1260 C.3   242  GLU242      0.0388
     79  CG        46.9980   86.4640   37.9860 C.3   242  GLU242      0.1160
     80  CD        47.0800   85.5630   39.2110 C.2   242  GLU242      0.3649
     81  OE1       47.8130   85.9270   40.1490 O.co2 242  GLU242     -0.2457
     82  OE2       46.4230   84.4980   39.2420 O.co2 242  GLU242     -0.2457
@<TRIPOS>BOND
     1    77    76    2
     2    76    75    1
     3    74    75    1
     4    22    23    1
     5    25    24    2
     6    14    13    2
     7    75    78    1
     8    13    12    1
     9    24    23    1
    10    23    26    1
    11    26    27    1
    12    78    79    1
    13    12    15    1
    14    12    11    1
    15    79    80    1
    16    16    15    1
    17    16    17    1
    18    27    28   ar
    19    27    29   ar
    20    17    18    1
    21    28    30   ar
    22    80    82   ar
    23    80    81   ar
    24    29    31   ar
    25     4     3    2
    26    30    31   ar
    27    18    19    2
    28    21    19    1
    29     3     2    1
    30    19    20    1
    31     2     5    1
    32     2     1    1
    33    34    33    1
    34    34    35    2
    35    33    32    1
    36    33    36    1
    37     5     6    1
    38     7     6   ar
    39     7     9   ar
    40    36    37    1
    41     6     8   ar
    42     9    10   ar
    43     8    10   ar
    44    43    42    1
    45    42    39    1
    46    42    44    1
    47    38    39    1
    48    50    49    1
    49    39    40    1
    50    45    46    1
    51    71    70    1
    52    71    72    1
    53    62    63    1
    54    62    59    1
    55    49    46    1
    56    49    51    1
    57    64    63   ar
    58    64    66   ar
    59    70    60   am
    60    40    41    2
    61    63    65   ar
    62    47    46    1
    63    47    48    2
    64    66    68   ar
    65    60    61    2
    66    60    59    1
    67    65    67   ar
    68    59    58    1
    69    72    73    2
    70    68    67   ar
    71    68    69    1
    72    58    54   am
    73    57    56    1
    74    56    53    1
    75    54    53    1
    76    54    55    2
    77    53    52    1
