@<TRIPOS>MOLECULE
tmp/1s20G01.pdb
 208 201 0 0 0
SMALL
GASTEIGER

@<TRIPOS>ATOM
      1  N         54.0500   68.8540   44.7210 N.3    39  VAL39      -0.1245
      2  CA        53.2650   70.0760   44.6320 C.3    39  VAL39       0.1561
      3  C         52.1740   69.8820   43.5900 C.2    39  VAL39       0.2260
      4  O         52.3030   70.3150   42.4460 O.2    39  VAL39      -0.2867
      5  CB        54.1250   71.2880   44.2260 C.3    39  VAL39       0.0252
      6  CG1       53.2580   72.5300   44.1380 C.3    39  VAL39       0.0019
      7  CG2       55.2380   71.4960   45.2320 C.3    39  VAL39       0.0019
      8  N         48.9260   71.0230   43.8630 N.3    41  SER41      -0.1202
      9  CA        48.1510   72.2570   43.7380 C.3    41  SER41       0.2020
     10  C         48.5830   73.1180   42.5570 C.2    41  SER41       0.2618
     11  O         47.7480   73.6420   41.8150 O.2    41  SER41      -0.2717
     12  CB        48.2730   73.0820   45.0170 C.3    41  SER41       0.2103
     13  OG        49.6060   73.5260   45.1940 O.3    41  SER41      -0.2182
     14  N         49.8930   73.2670   42.3980 N.am   42  HIS42      -0.1975
     15  CA        50.4450   74.0770   41.3240 C.3    42  HIS42       0.1656
     16  C         51.1080   73.2340   40.2490 C.2    42  HIS42       0.2291
     17  O         51.9400   73.7150   39.4790 O.2    42  HIS42      -0.2864
     18  CB        51.4200   75.0980   41.9160 C.3    42  HIS42       0.0771
     19  CG        50.7350   76.2110   42.6450 C.ar   42  HIS42       0.0820
     20  ND1       50.3160   77.3610   42.0120 N.ar   42  HIS42      -0.2267
     21  CD2       50.3350   76.3240   43.9330 C.ar   42  HIS42       0.1154
     22  CE1       49.6880   78.1350   42.8790 C.ar   42  HIS42       0.1986
     23  NE2       49.6850   77.5280   44.0520 N.ar   42  HIS42      -0.2212
     24  N         51.5030   83.9240   35.4260 N.3   112  HIS112     -0.1226
     25  CA        51.5980   83.1290   36.6470 C.3   112  HIS112      0.1752
     26  C         52.7180   82.1110   36.4950 C.2   112  HIS112      0.2596
     27  O         52.6980   81.3130   35.5640 O.2   112  HIS112     -0.2718
     28  CB        50.2780   82.4020   36.8940 C.3   112  HIS112      0.0759
     29  CG        50.1710   81.7990   38.2580 C.ar  112  HIS112      0.0818
     30  ND1       51.0690   80.8700   38.7360 N.ar  112  HIS112     -0.2268
     31  CD2       49.2870   82.0190   39.2600 C.ar  112  HIS112      0.1154
     32  CE1       50.7450   80.5450   39.9750 C.ar  112  HIS112      0.1986
     33  NE2       49.6680   81.2290   40.3170 N.ar  112  HIS112     -0.2212
     34  N         53.6870   82.1270   37.4080 N.am  113  TRP113     -0.1976
     35  CA        54.8210   81.2070   37.3190 C.3   113  TRP113      0.1640
     36  C         54.5960   79.8170   37.9080 C.2   113  TRP113      0.2290
     37  O         55.5550   79.0500   38.0790 O.2   113  TRP113     -0.2864
     38  CB        56.0600   81.8300   37.9740 C.3   113  TRP113      0.0576
     39  CG        55.9470   82.0590   39.4670 C.ar  113  TRP113      0.0006
     40  CD1       55.0040   81.5450   40.3190 C.ar  113  TRP113      0.0946
     41  CD2       56.8570   82.8050   40.2860 C.ar  113  TRP113      0.0152
     42  NE1       55.2750   81.9220   41.6090 N.ar  113  TRP113     -0.2442
     43  CE2       56.4040   82.6950   41.6200 C.ar  113  TRP113      0.0810
     44  CE3       58.0110   83.5550   40.0230 C.ar  113  TRP113      0.0012
     45  CZ2       57.0690   83.3060   42.6900 C.ar  113  TRP113      0.0191
     46  CZ3       58.6720   84.1620   41.0870 C.ar  113  TRP113      0.0001
     47  CH2       58.2000   84.0340   42.4030 C.ar  113  TRP113      0.0015
     48  N         54.6500   77.2470   40.3510 N.3   114  ARG114     -0.1231
     49  CA        55.2650   77.0500   41.6680 C.3   114  ARG114      0.1694
     50  C         56.5160   77.8930   41.8970 C.2   114  ARG114      0.2592
     51  O         57.5790   77.5780   41.3700 O.2   114  ARG114     -0.2718
     52  CB        55.6180   75.5750   41.8660 C.3   114  ARG114      0.0321
     53  CG        56.3430   75.2970   43.1600 C.3   114  ARG114      0.0489
     54  CD        57.1140   74.0100   43.0640 C.3   114  ARG114      0.2205
     55  NE        57.8800   73.7500   44.2730 N.pl3 114  ARG114     -0.0865
     56  CZ        58.8020   72.8000   44.3640 C.cat 114  ARG114      0.5346
     57  NH1       59.0620   72.0310   43.3190 N.pl3 114  ARG114      0.1354
     58  NH2       59.4680   72.6180   45.4920 N.pl3 114  ARG114      0.1354
     59  N         56.3840   78.9550   42.6870 N.am  115  GLY115     -0.1957
     60  CA        57.5140   79.8240   42.9700 C.3   115  GLY115      0.1869
     61  C         58.7240   79.0800   43.5040 C.2   115  GLY115      0.2309
     62  O         59.8660   79.4250   43.1890 O.2   115  GLY115     -0.2863
     63  N         56.5090   87.1330   43.4390 N.3   133  THR133     -0.1203
     64  CA        55.7440   87.6900   42.3370 C.3   133  THR133      0.1994
     65  C         54.5070   88.3080   42.9530 C.2   133  THR133      0.2618
     66  O         54.2450   88.0900   44.1330 O.2   133  THR133     -0.2717
     67  CB        55.3140   86.5700   41.3690 C.3   133  THR133      0.1784
     68  OG1       54.5410   87.1150   40.2950 O.3   133  THR133     -0.2211
     69  CG2       54.4870   85.5310   42.1090 C.3   133  THR133      0.0376
     70  N         53.7650   89.0950   42.1740 N.am  134  ASN134     -0.1960
     71  CA        52.5260   89.6730   42.6740 C.3   134  ASN134      0.1819
     72  C         51.3760   88.9390   41.9940 C.2   134  ASN134      0.2622
     73  O         51.5940   87.9400   41.3050 O.2   134  ASN134     -0.2715
     74  CB        52.4430   91.2000   42.4470 C.3   134  ASN134      0.1195
     75  CG        52.5990   91.6190   40.9880 C.2   134  ASN134      0.2630
     76  OD1       52.5430   90.8050   40.0730 O.2   134  ASN134     -0.2716
     77  ND2       52.7730   92.9180   40.7750 N.am  134  ASN134     -0.0877
     78  N         50.1530   89.4140   42.1760 N.am  135  SER135     -0.1950
     79  CA        49.0090   88.7390   41.5840 C.3   135  SER135      0.1924
     80  C         47.8330   89.6920   41.5620 C.2   135  SER135      0.2314
     81  O         47.9750   90.8710   41.8750 O.2   135  SER135     -0.2863
     82  CB        48.6470   87.5290   42.4370 C.3   135  SER135      0.2116
     83  OG        48.2500   87.9430   43.7310 O.3   135  SER135     -0.2180
     84  N         48.4450   87.6950   46.9650 N.3   150  THR150     -0.1218
     85  CA        49.0510   86.6490   47.7800 C.3   150  THR150      0.1862
     86  C         50.5680   86.7570   47.7500 C.2   150  THR150      0.2287
     87  O         51.2420   86.2730   48.6550 O.2   150  THR150     -0.2866
     88  CB        48.6190   85.2390   47.3150 C.3   150  THR150      0.1770
     89  OG1       48.6700   85.1590   45.8830 O.3   150  THR150     -0.2211
     90  CG2       47.2120   84.9370   47.8000 C.3   150  THR150      0.0375
     91  N         53.6340   85.4250   46.8920 N.3   152  PRO152     -0.2116
     92  CA        54.4400   84.4190   47.5810 C.3   152  PRO152      0.1372
     93  C         55.9090   84.7590   47.6480 C.2   152  PRO152      0.2244
     94  O         56.4950   85.1710   46.6510 O.2   152  PRO152     -0.2868
     95  CB        54.2240   83.1580   46.7460 C.3   152  PRO152      0.0268
     96  CG        52.9700   83.3970   46.0590 C.3   152  PRO152      0.0207
     97  CD        53.0140   84.8420   45.6960 C.3   152  PRO152      0.0892
     98  N         59.6430   83.2450   48.2970 N.3   154  ILE154     -0.1245
     99  CA        60.4040   81.9980   48.2540 C.3   154  ILE154      0.1561
    100  C         61.8390   82.2840   48.6920 C.2   154  ILE154      0.2260
    101  O         62.4640   83.2310   48.2180 O.2   154  ILE154     -0.2867
    102  CB        60.4330   81.3970   46.8090 C.3   154  ILE154      0.0252
    103  CG1       59.0820   80.7620   46.4740 C.3   154  ILE154      0.0019
    104  CG2       61.5530   80.3740   46.6640 C.3   154  ILE154      0.0019
    105  CD1       57.9450   81.7420   46.3400 C.3   154  ILE154      0.0001
    106  N         61.6200   77.9520   51.9610 N.3   164  VAL164     -0.1231
    107  CA        60.3360   78.4660   52.3550 C.3   164  VAL164      0.1692
    108  C         59.6420   78.9640   51.0940 C.2   164  VAL164      0.2592
    109  O         60.2060   79.7420   50.3340 O.2   164  VAL164     -0.2718
    110  CB        60.5120   79.6140   53.3380 C.3   164  VAL164      0.0266
    111  CG1       59.3340   80.5670   53.2330 C.3   164  VAL164      0.0020
    112  CG2       60.6490   79.0610   54.7570 C.3   164  VAL164      0.0020
    113  N         58.4260   78.4900   50.8660 N.am  165  ASP165     -0.1974
    114  CA        57.6300   78.9020   49.7180 C.3   165  ASP165      0.1709
    115  C         56.2780   79.1730   50.3500 C.2   165  ASP165      0.2293
    116  O         55.4900   78.2600   50.5470 O.2   165  ASP165     -0.2864
    117  CB        57.5220   77.7660   48.6970 C.3   165  ASP165      0.1436
    118  CG        56.7160   78.1560   47.4740 C.2   165  ASP165      0.3671
    119  OD1       56.2550   79.3070   47.4120 O.co2 165  ASP165     -0.2456
    120  OD2       56.5440   77.3180   46.5680 O.co2 165  ASP165     -0.2456
    121  N         52.6660   81.8010   50.8590 N.3   166  SER166     -0.1217
    122  CA        51.7490   82.8200   50.3920 C.3   166  SER166      0.1889
    123  C         51.5800   83.7970   51.5490 C.2   166  SER166      0.2288
    124  O         51.7680   83.4290   52.7130 O.2   166  SER166     -0.2866
    125  CB        50.4050   82.1830   50.0420 C.3   166  SER166      0.2089
    126  OG        49.4260   83.1560   49.7550 O.3   166  SER166     -0.2183
    127  N         48.8820   84.9190   52.3200 N.3   167  SER167     -0.1217
    128  CA        47.5930   84.5450   52.9000 C.3   167  SER167      0.1889
    129  C         47.8430   83.2790   53.7240 C.2   167  SER167      0.2288
    130  O         48.4100   82.3150   53.2160 O.2   167  SER167     -0.2866
    131  CB        46.5680   84.2700   51.7990 C.3   167  SER167      0.2089
    132  OG        46.9790   83.2040   50.9550 O.3   167  SER167     -0.2183
    133  N         46.2290   80.6640   54.5510 N.3   168  PHE168     -0.1227
    134  CA        45.8740   79.4670   53.7860 C.3   168  PHE168      0.1736
    135  C         45.6000   79.8960   52.3500 C.2   168  PHE168      0.2596
    136  O         45.2460   81.0410   52.0990 O.2   168  PHE168     -0.2718
    137  CB        44.5940   78.7990   54.3060 C.3   168  PHE168      0.0547
    138  CG        44.7300   78.1970   55.6610 C.ar  168  PHE168     -0.0202
    139  CD1       44.4260   78.9400   56.7970 C.ar  168  PHE168     -0.0042
    140  CD2       45.1980   76.8930   55.8130 C.ar  168  PHE168     -0.0042
    141  CE1       44.5890   78.3960   58.0690 C.ar  168  PHE168     -0.0003
    142  CE2       45.3650   76.3420   57.0740 C.ar  168  PHE168     -0.0003
    143  CZ        45.0610   77.0930   58.2050 C.ar  168  PHE168     -0.0000
    144  N         45.7520   78.9760   51.4080 N.am  169  SER169     -0.1952
    145  CA        45.4860   79.2770   50.0080 C.3   169  SER169      0.1924
    146  C         44.0390   78.8660   49.7300 C.2   169  SER169      0.2314
    147  O         43.5010   77.9840   50.4030 O.2   169  SER169     -0.2863
    148  CB        46.4370   78.4850   49.1040 C.3   169  SER169      0.2116
    149  OG        46.0740   77.1170   49.0370 O.3   169  SER169     -0.2180
    150  N         44.3620   87.1960   35.3390 N.3   242  GLU242     -0.1245
    151  CA        45.6750   87.2470   35.9650 C.3   242  GLU242      0.1567
    152  C         46.8260   86.9880   34.9990 C.2   242  GLU242      0.2260
    153  O         47.2030   85.8410   34.7590 O.2   242  GLU242     -0.2867
    154  CB        45.7590   86.2430   37.1260 C.3   242  GLU242      0.0388
    155  CG        46.9980   86.4640   37.9860 C.3   242  GLU242      0.1160
    156  CD        47.0800   85.5630   39.2110 C.2   242  GLU242      0.3649
    157  OE1       47.8130   85.9270   40.1490 O.co2 242  GLU242     -0.2457
    158  OE2       46.4230   84.4980   39.2420 O.co2 242  GLU242     -0.2457
    159  N         59.9830   69.2180   61.6280 N.3   286  ARG286     -0.1231
    160  CA        60.4130   69.2560   60.2360 C.3   286  ARG286      0.1694
    161  C         60.8720   70.6360   59.8000 C.2   286  ARG286      0.2592
    162  O         60.3020   71.6570   60.1910 O.2   286  ARG286     -0.2718
    163  CB        59.2830   68.7640   59.3210 C.3   286  ARG286      0.0321
    164  CG        57.9070   69.2970   59.7290 C.3   286  ARG286      0.0489
    165  CD        56.7340   68.8160   58.8520 C.3   286  ARG286      0.2205
    166  NE        56.6420   69.5090   57.5650 N.pl3 286  ARG286     -0.0865
    167  CZ        55.5520   69.5390   56.8000 C.cat 286  ARG286      0.5346
    168  NH1       54.4430   68.9200   57.1820 N.pl3 286  ARG286      0.1354
    169  NH2       55.5710   70.1860   55.6440 N.pl3 286  ARG286      0.1354
    170  N         61.9240   70.6650   58.9960 N.am  287  LEU287     -0.1966
    171  CA        62.4460   71.9240   58.5040 C.3   287  LEU287      0.1713
    172  C         61.6840   72.3280   57.2500 C.2   287  LEU287      0.2458
    173  O         61.2220   71.4860   56.4920 O.2   287  LEU287     -0.2730
    174  CB        63.9430   71.8050   58.2100 C.3   287  LEU287      0.0310
    175  CG        64.8940   72.0680   59.3870 C.3   287  LEU287      0.0022
    176  CD1       65.6360   70.8160   59.8040 C.3   287  LEU287      0.0001
    177  CD2       65.8770   73.1390   58.9660 C.3   287  LEU287      0.0001
    178  N         61.5480   73.6320   57.0170 N.am  288  PRO288     -0.2716
    179  CA        60.8260   74.1000   55.8360 C.3   288  PRO288      0.1536
    180  C         61.3540   73.5480   54.5130 C.2   288  PRO288      0.2599
    181  O         62.5520   73.6110   54.2310 O.2   288  PRO288     -0.2715
    182  CB        60.9490   75.6190   55.9400 C.3   288  PRO288      0.0310
    183  CG        62.2510   75.8120   56.6730 C.3   288  PRO288      0.0237
    184  CD        62.1660   74.7520   57.7450 C.3   288  PRO288      0.0939
    185  N         60.4330   72.9990   53.7220 N.am  289  GLY289     -0.1955
    186  CA        60.7500   72.4490   52.4160 C.3   289  GLY289      0.1869
    187  C         61.3690   71.0630   52.3630 C.2   289  GLY289      0.2309
    188  O         61.5960   70.5260   51.2790 O.2   289  GLY289     -0.2863
    189  N         60.0090   68.3090   53.1250 N.3   291  GLU291     -0.1231
    190  CA        59.0410   67.3210   52.6690 C.3   291  GLU291      0.1699
    191  C         59.1840   67.0910   51.1780 C.2   291  GLU291      0.2592
    192  O         58.8580   66.0160   50.6790 O.2   291  GLU291     -0.2718
    193  CB        57.6040   67.7690   52.9630 C.3   291  GLU291      0.0402
    194  CG        57.1330   68.9840   52.1680 C.3   291  GLU291      0.1161
    195  CD        57.4530   70.2940   52.8660 C.2   291  GLU291      0.3649
    196  OE1       58.2780   70.2940   53.8060 O.co2 291  GLU291     -0.2457
    197  OE2       56.8870   71.3320   52.4670 O.co2 291  GLU291     -0.2457
    198  N         59.6630   68.1100   50.4710 N.am  292  PHE292     -0.1976
    199  CA        59.8240   68.0200   49.0290 C.3   292  PHE292      0.1639
    200  C         60.8600   66.9910   48.6330 C.2   292  PHE292      0.2290
    201  O         60.7670   66.4040   47.5640 O.2   292  PHE292     -0.2864
    202  CB        60.1930   69.3800   48.4460 C.3   292  PHE292      0.0560
    203  CG        59.1280   70.4170   48.6290 C.ar  292  PHE292     -0.0200
    204  CD1       57.8180   70.1710   48.2300 C.ar  292  PHE292     -0.0042
    205  CD2       59.4340   71.6430   49.2010 C.ar  292  PHE292     -0.0042
    206  CE1       56.8300   71.1400   48.4030 C.ar  292  PHE292     -0.0003
    207  CE2       58.4520   72.6160   49.3770 C.ar  292  PHE292     -0.0003
    208  CZ        57.1500   72.3640   48.9780 C.ar  292  PHE292     -0.0000
@<TRIPOS>BOND
     1   153   152    2
     2   152   151    1
     3   150   151    1
     4    24    25    1
     5    27    26    2
     6   151   154    1
     7    26    25    1
     8    26    34   am
     9    25    28    1
    10    28    29    1
    11   154   155    1
    12    35    34    1
    13    35    36    1
    14    35    38    1
    15    36    37    2
    16    38    39    1
    17   155   156    1
    18    29    30   ar
    19    29    31   ar
    20    30    32   ar
    21   156   158   ar
    22   156   157   ar
    23    31    33   ar
    24    39    41   ar
    25    39    40   ar
    26    17    16    2
    27    32    33   ar
    28    44    41   ar
    29    44    46   ar
    30    76    75    2
    31    16    15    1
    32    41    43   ar
    33    68    67    1
    34    40    42   ar
    35    48    49    1
    36    77    75   am
    37    75    74    1
    38    46    47   ar
    39    73    72    2
    40    15    18    1
    41    15    14    1
    42    67    69    1
    43    67    64    1
    44    51    50    2
    45    80    79    1
    46    80    81    2
    47    79    78    1
    48    79    82    1
    49    42    43   ar
    50    43    45   ar
    51    49    52    1
    52    49    50    1
    53    11    10    2
    54    52    53    1
    55    50    59   am
    56    18    19    1
    57    72    78   am
    58    72    71    1
    59    20    19   ar
    60    20    22   ar
    61    70    71    1
    62    70    65   am
    63    64    65    1
    64    64    63    1
    65    14    10   am
    66    47    45   ar
    67    82    83    1
    68     4     3    2
    69    74    71    1
    70    10     9    1
    71    19    21   ar
    72    59    60    1
    73    22    23   ar
    74    65    66    2
    75    60    61    1
    76    54    53    1
    77    54    55    1
    78    62    61    2
    79    57    56    1
    80     3     2    1
    81     9     8    1
    82     9    12    1
    83    21    23   ar
    84     6     5    1
    85     5     2    1
    86     5     7    1
    87    55    56    2
    88    56    58    1
    89     2     1    1
    90    12    13    1
    91    97    96    1
    92    97    91    1
    93    89    88    1
    94    96    95    1
    95   105   103    1
    96   103   102    1
    97   120   118   ar
    98    94    93    2
    99   104   102    1
   100    95    92    1
   101   102    99    1
   102    91    92    1
   103    84    85    1
   104    88    85    1
   105    88    90    1
   106   119   118   ar
   107   118   117    1
   108   201   200    2
   109    92    93    1
   110    86    85    1
   111    86    87    2
   112   101   100    2
   113   204   206   ar
   114   204   203   ar
   115    99    98    1
   116    99   100    1
   117   206   208   ar
   118   202   203    1
   119   202   199    1
   120   203   205   ar
   121   200   199    1
   122   117   114    1
   123   208   207   ar
   124   199   198    1
   125   149   148    1
   126   148   145    1
   127   205   207   ar
   128   114   115    1
   129   114   113    1
   130   146   145    1
   131   146   147    2
   132   126   125    1
   133   145   144    1
   134   125   122    1
   135   109   108    2
   136   115   116    2
   137   122   121    1
   138   122   123    1
   139   198   191   am
   140   192   191    2
   141   113   108   am
   142   132   131    1
   143   108   107    1
   144   191   190    1
   145   188   187    2
   146   144   135   am
   147   123   124    2
   148   131   128    1
   149   106   107    1
   150   136   135    2
   151   194   195    1
   152   194   193    1
   153   127   128    1
   154   135   134    1
   155   107   110    1
   156   187   186    1
   157   186   185    1
   158   197   195   ar
   159   190   193    1
   160   190   189    1
   161   195   196   ar
   162   128   129    1
   163   130   129    2
   164   111   110    1
   165   110   112    1
   166   185   180   am
   167   134   137    1
   168   134   133    1
   169   181   180    2
   170   137   138    1
   171   180   179    1
   172   169   167    1
   173   138   140   ar
   174   138   139   ar
   175   140   142   ar
   176   179   182    1
   177   179   178    1
   178   182   183    1
   179   173   172    2
   180   183   184    1
   181   139   141   ar
   182   167   168    1
   183   167   166    2
   184   178   172   am
   185   178   184    1
   186   142   143   ar
   187   172   171    1
   188   166   165    1
   189   141   143   ar
   190   174   171    1
   191   174   175    1
   192   171   170    1
   193   165   164    1
   194   177   175    1
   195   170   161   am
   196   163   164    1
   197   163   160    1
   198   175   176    1
   199   161   162    2
   200   161   160    1
   201   160   159    1
