@<TRIPOS>MOLECULE
tmp/1s22A01.pdb
 154 148 0 0 0
SMALL
GASTEIGER

@<TRIPOS>ATOM
      1  N         -3.1270    5.6670    5.5320 N.3    19  GLY19      -0.1210
      2  CA        -4.3860    5.0450    5.1530 C.3    19  GLY19       0.1956
      3  C         -4.2980    3.5510    4.8960 C.2    19  GLY19       0.2612
      4  O         -5.2690    2.8360    5.0940 O.2    19  GLY19      -0.2717
      5  N         -3.1310    3.0560    4.4870 N.am   20  ASP20      -0.1959
      6  CA        -2.9180    1.6210    4.2910 C.3    20  ASP20       0.1840
      7  C         -2.9490    0.8810    5.6300 C.2    20  ASP20       0.2622
      8  O         -2.7220    1.4960    6.7000 O.2    20  ASP20      -0.2715
      9  CB        -1.5870    1.3230    3.6270 C.3    20  ASP20       0.1450
     10  CG        -1.5680    1.6090    2.1420 C.2    20  ASP20       0.3671
     11  OD1       -2.5680    2.1460    1.5810 O.co2  20  ASP20      -0.2456
     12  OD2       -0.5420    1.2800    1.4690 O.co2  20  ASP20      -0.2456
     13  N         -3.1990   -0.4270    5.5900 N.am   21  ASP21      -0.1971
     14  CA        -3.3840   -1.2100    6.8010 C.3    21  ASP21       0.1709
     15  C         -2.0800   -1.7100    7.4150 C.2    21  ASP21       0.2293
     16  O         -2.0720   -2.2220    8.5080 O.2    21  ASP21      -0.2864
     17  CB        -4.3830   -2.3610    6.5750 C.3    21  ASP21       0.1436
     18  CG        -3.7940   -3.5640    5.9180 C.2    21  ASP21       0.3671
     19  OD1       -2.8290   -3.4550    5.1220 O.co2  21  ASP21      -0.2456
     20  OD2       -4.2990   -4.7020    6.1480 O.co2  21  ASP21      -0.2456
     21  N         -2.4490    4.9220   19.9270 N.3   129  TYR129     -0.1227
     22  CA        -3.5210    5.3450   19.0210 C.3   129  TYR129      0.1736
     23  C         -4.0330    4.1820   18.1770 C.2   129  TYR129      0.2595
     24  O         -5.2530    4.0870   17.9200 O.2   129  TYR129     -0.2718
     25  CB        -3.0640    6.4570   18.1060 C.3   129  TYR129      0.0548
     26  CG        -2.6800    7.7800   18.7520 C.ar  129  TYR129     -0.0200
     27  CD1       -2.9850    8.0870   20.0670 C.ar  129  TYR129     -0.0009
     28  CD2       -1.9970    8.7150   18.0070 C.ar  129  TYR129     -0.0009
     29  CE1       -2.6060    9.2950   20.6070 C.ar  129  TYR129      0.0417
     30  CE2       -1.6390    9.9180   18.5240 C.ar  129  TYR129      0.0417
     31  CZ        -1.9320   10.2160   19.8100 C.ar  129  TYR129      0.1957
     32  OH        -1.5540   11.4360   20.3210 O.3   129  TYR129     -0.2866
     33  N         -3.1350    3.2820   17.7770 N.am  130  ALA130     -0.1966
     34  CA        -3.4700    2.1470   16.9080 C.3   130  ALA130      0.1728
     35  C         -4.3780    1.1680   17.6450 C.2   130  ALA130      0.2617
     36  O         -5.0750    0.3840   16.9990 O.2   130  ALA130     -0.2715
     37  CB        -2.2280    1.4600   16.4390 C.3   130  ALA130      0.0334
     38  N         -4.3770    1.2140   18.9760 N.am  131  SER131     -0.1936
     39  CA        -5.2530    0.3850   19.8150 C.3   131  SER131      0.2055
     40  C         -6.5970    1.0700   20.1290 C.2   131  SER131      0.2644
     41  O         -7.4020    0.5400   20.8800 O.2   131  SER131     -0.2714
     42  CB        -4.5730   -0.0050   21.1270 C.3   131  SER131      0.2130
     43  OG        -4.6460    1.0460   22.0920 O.3   131  SER131     -0.2179
     44  N         -6.8080    2.2480   19.5640 N.am  132  GLY132     -0.1939
     45  CA        -8.0270    3.0020   19.7890 C.3   132  GLY132      0.2014
     46  C         -8.1100    3.7960   21.0770 C.2   132  GLY132      0.2639
     47  O         -9.2180    4.1810   21.5010 O.2   132  GLY132     -0.2714
     48  N         -6.9540    4.0910   21.6820 N.am  133  ARG133     -0.1963
     49  CA        -6.8640    4.7630   22.9620 C.3   133  ARG133      0.1729
     50  C         -6.0450    6.0440   22.8970 C.2   133  ARG133      0.2616
     51  O         -5.1180    6.1710   22.0790 O.2   133  ARG133     -0.2715
     52  CB        -6.1650    3.8330   23.9590 C.3   133  ARG133      0.0348
     53  CG        -6.9330    2.6050   24.3460 C.3   133  ARG133      0.0492
     54  CD        -6.1110    1.6410   25.2130 C.3   133  ARG133      0.2205
     55  NE        -6.9480    0.5260   25.6590 N.pl3 133  ARG133     -0.0865
     56  CZ        -7.3250   -0.4750   24.9010 C.cat 133  ARG133      0.5346
     57  NH1       -6.9220   -0.5980   23.6400 N.pl3 133  ARG133      0.1354
     58  NH2       -8.1180   -1.3920   25.3980 N.pl3 133  ARG133      0.1354
     59  N         -6.3880    6.9600   23.7900 N.am  134  THR134     -0.1951
     60  CA        -5.5710    8.1560   24.0560 C.3   134  THR134      0.1897
     61  C         -5.0050    8.2390   25.4760 C.2   134  THR134      0.2313
     62  O         -4.1310    9.0650   25.7370 O.2   134  THR134     -0.2863
     63  CB        -6.3080    9.4570   23.7220 C.3   134  THR134      0.1794
     64  OG1       -7.5390    9.5270   24.4530 O.3   134  THR134     -0.2208
     65  CG2       -6.6820    9.5250   22.2690 C.3   134  THR134      0.0378
     66  N         -4.5610   11.5550   27.8140 N.3   153  GLU153     -0.1231
     67  CA        -5.2840   12.4150   26.8880 C.3   153  GLU153      0.1699
     68  C         -4.4740   12.7340   25.6360 C.2   153  GLU153      0.2593
     69  O         -4.4330   13.8800   25.1650 O.2   153  GLU153     -0.2718
     70  CB        -5.7540   13.6840   27.6210 C.3   153  GLU153      0.0402
     71  CG        -6.7240   13.3710   28.7440 C.3   153  GLU153      0.1161
     72  CD        -7.2540   14.6080   29.4790 C.2   153  GLU153      0.3649
     73  OE1       -6.7110   15.7250   29.3120 O.co2 153  GLU153     -0.2457
     74  OE2       -8.2040   14.4380   30.2620 O.co2 153  GLU153     -0.2457
     75  N         -3.7860   11.7250   25.1150 N.am  154  GLY154     -0.1942
     76  CA        -3.1050   11.8270   23.8460 C.3   154  GLY154      0.2014
     77  C         -1.6340   12.1470   23.8840 C.2   154  GLY154      0.2638
     78  O         -0.9890   12.0620   22.8330 O.2   154  GLY154     -0.2714
     79  N         -1.1160   12.4980   25.0680 N.am  155  TYR155     -0.1973
     80  CA         0.2670   12.9300   25.2170 C.3   155  TYR155      0.1639
     81  C          1.0880   12.0550   26.1620 C.2   155  TYR155      0.2290
     82  O          0.6610   11.7260   27.2660 O.2   155  TYR155     -0.2864
     83  CB         0.2950   14.3690   25.7190 C.3   155  TYR155      0.0560
     84  CG        -0.3360   15.3220   24.7170 C.ar  155  TYR155     -0.0198
     85  CD1        0.3640   15.7370   23.5830 C.ar  155  TYR155     -0.0009
     86  CD2       -1.6510   15.7490   24.8770 C.ar  155  TYR155     -0.0009
     87  CE1       -0.2230   16.5910   22.6350 C.ar  155  TYR155      0.0417
     88  CE2       -2.2500   16.6100   23.9420 C.ar  155  TYR155      0.0417
     89  CZ        -1.5300   17.0200   22.8270 C.ar  155  TYR155      0.1957
     90  OH        -2.1180   17.8740   21.9050 O.3   155  TYR155     -0.2866
     91  N         -1.5410   -7.4510   15.3970 N.3   320  GLU320     -0.1245
     92  CA        -0.7800   -6.6730   14.4230 C.3   320  GLU320      0.1567
     93  C          0.4030   -5.9080   15.0610 C.2   320  GLU320      0.2260
     94  O          0.9860   -5.0440   14.3950 O.2   320  GLU320     -0.2867
     95  CB        -1.7020   -5.6930   13.7060 C.3   320  GLU320      0.0388
     96  CG        -2.2860   -4.5630   14.5410 C.3   320  GLU320      0.1160
     97  CD        -3.5930   -4.8740   15.2490 C.2   320  GLU320      0.3649
     98  OE1       -4.0100   -6.0620   15.3280 O.co2 320  GLU320     -0.2457
     99  OE2       -4.1830   -3.8790   15.7430 O.co2 320  GLU320     -0.2457
    100  N          1.0580    1.5720   12.0280 N.3   327  ILE327     -0.1231
    101  CA        -0.4000    1.7210   11.8970 C.3   327  ILE327      0.1692
    102  C         -0.9160    2.9860   12.5630 C.2   327  ILE327      0.2592
    103  O         -1.7250    3.7130   11.9900 O.2   327  ILE327     -0.2718
    104  CB        -1.1170    0.4500   12.4090 C.3   327  ILE327      0.0266
    105  CG1       -0.8340   -0.7240   11.4800 C.3   327  ILE327      0.0019
    106  CG2       -2.6290    0.7150   12.5410 C.3   327  ILE327      0.0020
    107  CD1       -1.1640   -2.0680   12.0860 C.3   327  ILE327      0.0001
    108  N         -0.4340    3.2930   13.7650 N.am  328  GLY328     -0.1957
    109  CA        -0.7630    4.5220   14.4520 C.3   328  GLY328      0.1869
    110  C         -0.4430    5.7290   13.5770 C.2   328  GLY328      0.2309
    111  O         -1.2180    6.6730   13.5110 O.2   328  GLY328     -0.2863
    112  N         -0.1720    5.7110   10.2840 N.3   330  SER330     -0.1202
    113  CA        -1.0590    5.6440    9.1220 C.3   330  SER330      0.2020
    114  C         -2.4030    6.2860    9.4540 C.2   330  SER330      0.2619
    115  O         -2.9850    6.9990    8.6120 O.2   330  SER330     -0.2717
    116  CB        -1.2440    4.2090    8.7110 C.3   330  SER330      0.2103
    117  OG        -2.0790    4.0890    7.5940 O.3   330  SER330     -0.2182
    118  N         -2.9130    6.0020   10.6430 N.am  331  ILE331     -0.1965
    119  CA        -4.1640    6.5550   11.1260 C.3   331  ILE331      0.1727
    120  C         -4.0200    8.0510   11.2700 C.2   331  ILE331      0.2616
    121  O         -4.7960    8.8180   10.7200 O.2   331  ILE331     -0.2715
    122  CB        -4.5850    5.9160   12.4710 C.3   331  ILE331      0.0290
    123  CG1       -4.9000    4.4260   12.3230 C.3   331  ILE331      0.0022
    124  CG2       -5.7790    6.6710   13.1070 C.3   331  ILE331      0.0023
    125  CD1       -4.7870    3.6410   13.6070 C.3   331  ILE331      0.0001
    126  N         -3.0140    8.4790   12.0130 N.am  332  LEU332     -0.1977
    127  CA        -2.8690    9.8750   12.3520 C.3   332  LEU332      0.1596
    128  C         -2.7320   10.7250   11.0780 C.2   332  LEU332      0.2287
    129  O         -3.3730   11.7540   10.9540 O.2   332  LEU332     -0.2864
    130  CB        -1.6390   10.0710   13.2720 C.3   332  LEU332      0.0297
    131  CG        -1.4380   11.4670   13.8270 C.3   332  LEU332      0.0022
    132  CD1       -2.6100   11.9510   14.6690 C.3   332  LEU332      0.0001
    133  CD2       -0.1380   11.5570   14.6170 C.3   332  LEU332      0.0001
    134  N         -3.6130   10.1880    8.0510 N.3   334  SER334     -0.1202
    135  CA        -4.7180   10.1740    7.0750 C.3   334  SER334      0.2020
    136  C         -5.9860   10.7810    7.6850 C.2   334  SER334      0.2618
    137  O         -7.0150   10.9360    7.0150 O.2   334  SER334     -0.2717
    138  CB        -4.8890    8.7950    6.4140 C.3   334  SER334      0.2103
    139  OG        -5.1650    7.7630    7.3050 O.3   334  SER334     -0.2182
    140  N         -5.8700   11.2150    8.9300 N.am  335  LEU335     -0.1979
    141  CA        -6.9800   11.7300    9.6830 C.3   335  LEU335      0.1596
    142  C         -7.3740   13.0980    9.1810 C.2   335  LEU335      0.2287
    143  O         -6.5660   14.0480    9.1720 O.2   335  LEU335     -0.2864
    144  CB        -6.6130   11.7580   11.1680 C.3   335  LEU335      0.0297
    145  CG        -7.6710   11.4710   12.2100 C.3   335  LEU335      0.0022
    146  CD1       -8.4710   10.1920   11.8840 C.3   335  LEU335      0.0001
    147  CD2       -7.0280   11.4400   13.5770 C.3   335  LEU335      0.0001
    148  N         -8.8990   15.3500   10.5290 N.3   337  THR337     -0.1218
    149  CA        -8.6680   16.3840   11.5640 C.3   337  THR337      0.1862
    150  C         -7.2000   16.7270   11.9030 C.2   337  THR337      0.2287
    151  O         -6.9410   17.5930   12.7360 O.2   337  THR337     -0.2866
    152  CB        -9.3810   15.9810   12.8920 C.3   337  THR337      0.1770
    153  OG1       -8.9770   14.6630   13.2910 O.3   337  THR337     -0.2211
    154  CG2      -10.9060   15.8650   12.7110 C.3   337  THR337      0.0375
@<TRIPOS>BOND
     1    12    10   ar
     2    11    10   ar
     3    10     9    1
     4     9     6    1
     5     6     5    1
     6     6     7    1
     7     5     3   am
     8     3     4    2
     9     3     2    1
    10    19    18   ar
    11     2     1    1
    12    13     7   am
    13    13    14    1
    14     7     8    2
    15    18    20   ar
    16    18    17    1
    17   138   135    1
    18   138   139    1
    19    17    14    1
    20    14    15    1
    21   137   136    2
    22   135   136    1
    23   135   134    1
    24    15    16    2
    25   117   116    1
    26   136   140   am
    27   115   114    2
    28   116   113    1
    29   140   141    1
    30   113   114    1
    31   113   112    1
    32   143   142    2
    33   142   141    1
    34   114   118   am
    35   141   144    1
    36   148   149    1
    37   118   119    1
    38   121   120    2
    39   129   128    2
    40   128   127    1
    41   119   120    1
    42   119   122    1
    43   144   145    1
    44   120   126   am
    45   105   107    1
    46   105   104    1
    47   149   150    1
    48   149   152    1
    49   146   145    1
    50   101   100    1
    51   101   104    1
    52   101   102    1
    53   150   151    2
    54   103   102    2
    55   126   127    1
    56   145   147    1
    57   123   122    1
    58   123   125    1
    59   127   130    1
    60   104   106    1
    61   122   124    1
    62   102   108   am
    63   154   152    1
    64   152   153    1
    65   130   131    1
    66   111   110    2
    67   110   109    1
    68    95    92    1
    69    95    96    1
    70   108   109    1
    71   131   133    1
    72   131   132    1
    73    94    93    2
    74    92    93    1
    75    92    91    1
    76    96    97    1
    77    97    98   ar
    78    97    99   ar
    79    37    34    1
    80    34    35    1
    81    34    33    1
    82    36    35    2
    83    35    38   am
    84    33    23   am
    85    24    23    2
    86    28    30   ar
    87    28    26   ar
    88    25    26    1
    89    25    22    1
    90    23    22    1
    91    30    31   ar
    92    26    27   ar
    93    38    39    1
    94    22    21    1
    95    44    45    1
    96    44    40   am
    97    45    46    1
    98    31    32    1
    99    31    29   ar
   100    39    40    1
   101    39    42    1
   102    27    29   ar
   103    40    41    2
   104    46    47    2
   105    46    48   am
   106    42    43    1
   107    48    49    1
   108    90    89    1
   109    51    50    2
   110    65    63    1
   111    87    89   ar
   112    87    85   ar
   113    89    88   ar
   114    78    77    2
   115    50    49    1
   116    50    59   am
   117    49    52    1
   118    85    84   ar
   119    57    56    1
   120    63    60    1
   121    63    64    1
   122    59    60    1
   123    76    77    1
   124    76    75    1
   125    77    79   am
   126    88    86   ar
   127    52    53    1
   128    60    61    1
   129    53    54    1
   130    84    86   ar
   131    84    83    1
   132    56    58    1
   133    56    55    2
   134    79    80    1
   135    75    68   am
   136    69    68    2
   137    54    55    1
   138    80    83    1
   139    80    81    1
   140    61    62    2
   141    68    67    1
   142    81    82    2
   143    67    70    1
   144    67    66    1
   145    70    71    1
   146    71    72    1
   147    73    72   ar
   148    72    74   ar
