@<TRIPOS>MOLECULE
tmp/1s26B00.pdb
 171 160 0 0 0
SMALL
GASTEIGER

@<TRIPOS>ATOM
      1  N         -3.5020   50.3250   23.2550 N.3    36  ARG36      -0.1245
      2  CA        -3.2800   51.1680   24.4260 C.3    36  ARG36       0.1563
      3  C         -3.5420   52.5600   23.8670 C.2    36  ARG36       0.2260
      4  O         -3.8150   52.7100   22.6770 O.2    36  ARG36      -0.2867
      5  CB        -1.8380   51.1020   24.9220 C.3    36  ARG36       0.0307
      6  CG        -1.3770   49.7270   25.3480 C.3    36  ARG36       0.0489
      7  CD        -0.6450   49.8040   26.6500 C.3    36  ARG36       0.2205
      8  NE         0.5480   50.6150   26.5290 N.pl3  36  ARG36      -0.0865
      9  CZ         1.0000   51.4210   27.4850 C.cat  36  ARG36       0.5346
     10  NH1        0.3610   51.5350   28.6360 N.pl3  36  ARG36       0.1354
     11  NH2        2.1030   52.1170   27.2960 N.pl3  36  ARG36       0.1354
     12  N         -0.5780   58.9930   21.7840 N.3    39  ASN39      -0.1240
     13  CA        -0.3670   60.4230   21.9350 C.3    39  ASN39       0.1653
     14  C         -1.0870   61.2010   20.8600 C.2    39  ASN39       0.2266
     15  O         -0.7000   61.1770   19.6950 O.2    39  ASN39      -0.2867
     16  CB         1.1220   60.7160   21.9120 C.3    39  ASN39       0.1155
     17  CG         1.4350   62.1640   22.1800 C.2    39  ASN39       0.2627
     18  OD1        2.5880   62.5050   22.4520 O.2    39  ASN39      -0.2716
     19  ND2        0.4300   63.0290   22.0950 N.am   39  ASN39      -0.0877
     20  N          8.5300   54.8130   16.8090 N.3    53  LYS53      -0.1231
     21  CA         9.5390   54.1270   17.5930 C.3    53  LYS53       0.1693
     22  C          9.2770   52.6840   17.9760 C.2    53  LYS53       0.2593
     23  O          8.1720   52.3020   18.3310 O.2    53  LYS53      -0.2718
     24  CB         9.8430   54.9350   18.8490 C.3    53  LYS53       0.0285
     25  CG         8.8000   54.8380   19.9270 C.3    53  LYS53       0.0035
     26  CD         8.9630   56.0030   20.8790 C.3    53  LYS53       0.0206
     27  CE         8.1950   55.7890   22.1520 C.3    53  LYS53       0.1093
     28  NZ         8.7960   54.6820   22.9180 N.3    53  LYS53      -0.1314
     29  N         10.3330   51.8870   17.9180 N.am   54  GLY54      -0.1942
     30  CA        10.2320   50.4840   18.2660 C.3    54  GLY54       0.2014
     31  C         10.8370   50.2550   19.6310 C.2    54  GLY54       0.2638
     32  O         11.2000   51.2100   20.3260 O.2    54  GLY54      -0.2714
     33  N         10.9820   48.9920   20.0120 N.am   55  LEU55      -0.1977
     34  CA        11.4970   48.6820   21.3320 C.3    55  LEU55       0.1596
     35  C         12.9120   49.1170   21.6210 C.2    55  LEU55       0.2287
     36  O         13.4000   48.9020   22.7310 O.2    55  LEU55      -0.2864
     37  CB        11.3390   47.1940   21.6310 C.3    55  LEU55       0.0297
     38  CG         9.8860   46.7340   21.7710 C.3    55  LEU55       0.0022
     39  CD1        9.8600   45.2680   22.1910 C.3    55  LEU55       0.0001
     40  CD2        9.1540   47.6050   22.7970 C.3    55  LEU55       0.0001
     41  N         13.7840   52.1850   21.6660 N.3    57  VAL57      -0.1231
     42  CA        13.6830   53.5620   22.1070 C.3    57  VAL57       0.1692
     43  C         12.5540   53.6750   23.1220 C.2    57  VAL57       0.2592
     44  O         11.3800   53.6930   22.7740 O.2    57  VAL57      -0.2718
     45  CB        13.4380   54.5040   20.9230 C.3    57  VAL57       0.0266
     46  CG1       13.2170   55.9280   21.4130 C.3    57  VAL57       0.0020
     47  CG2       14.6260   54.4550   20.0000 C.3    57  VAL57       0.0020
     48  N         12.9380   53.7310   24.3860 N.am   58  HIS58      -0.1962
     49  CA        12.0050   53.8340   25.4840 C.3    58  HIS58       0.1787
     50  C         11.9170   55.2530   25.9970 C.2    58  HIS58       0.2621
     51  O         11.7380   55.4790   27.1880 O.2    58  HIS58      -0.2715
     52  CB        12.4590   52.9070   26.6050 C.3    58  HIS58       0.0785
     53  CG        12.3480   51.4600   26.2560 C.ar   58  HIS58       0.0821
     54  ND1       13.2260   50.5110   26.7290 N.ar   58  HIS58      -0.2267
     55  CD2       11.4800   50.8050   25.4500 C.ar   58  HIS58       0.1154
     56  CE1       12.9090   49.3330   26.2210 C.ar   58  HIS58       0.1986
     57  NE2       11.8540   49.4840   25.4420 N.ar   58  HIS58      -0.2212
     58  N         12.0590   56.2150   25.1010 N.am   59  GLY59      -0.1940
     59  CA        11.9870   57.5950   25.5330 C.3    59  GLY59       0.2014
     60  C         10.5360   57.9730   25.4560 C.2    59  GLY59       0.2639
     61  O          9.8200   57.4440   24.6150 O.2    59  GLY59      -0.2714
     62  N         10.0840   58.8690   26.3120 N.am   60  LYS60      -0.1963
     63  CA         8.6880   59.2350   26.2580 C.3    60  LYS60       0.1728
     64  C          8.4520   60.3700   25.2730 C.2    60  LYS60       0.2616
     65  O          9.2920   61.2690   25.1340 O.2    60  LYS60      -0.2715
     66  CB         8.1880   59.6130   27.6570 C.3    60  LYS60       0.0311
     67  CG         7.4080   58.4960   28.3690 C.3    60  LYS60       0.0038
     68  CD         8.1590   57.1820   28.3500 C.3    60  LYS60       0.0206
     69  CE         7.2300   55.9880   28.5410 C.3    60  LYS60       0.1093
     70  NZ         6.7500   55.8340   29.9430 N.3    60  LYS60      -0.1314
     71  N          7.3160   60.3060   24.5770 N.am   61  SER61      -0.1950
     72  CA         6.9270   61.3260   23.6120 C.3    61  SER61       0.1924
     73  C          6.5310   62.5820   24.3680 C.2    61  SER61       0.2314
     74  O          6.4760   62.5890   25.5900 O.2    61  SER61      -0.2863
     75  CB         5.7420   60.8450   22.7790 C.3    61  SER61       0.2116
     76  OG         4.5920   60.6790   23.5790 O.3    61  SER61      -0.2180
     77  N          6.1340   64.4680   28.0180 N.3    79  LYS79      -0.1245
     78  CA         4.9420   64.5130   28.8430 C.3    79  LYS79       0.1561
     79  C          5.3620   64.4940   30.3250 C.2    79  LYS79       0.2260
     80  O          4.6200   64.9680   31.1960 O.2    79  LYS79      -0.2867
     81  CB         4.0140   63.3370   28.5020 C.3    79  LYS79       0.0271
     82  CG         4.6420   61.9880   28.7330 C.3    79  LYS79       0.0035
     83  CD         3.7160   60.8420   28.3850 C.3    79  LYS79       0.0206
     84  CE         3.5610   60.6910   26.8990 C.3    79  LYS79       0.1093
     85  NZ         2.6100   59.6140   26.4800 N.3    79  LYS79      -0.1314
     86  N         15.0140   59.0130   34.3360 N.3    89  LYS89      -0.1245
     87  CA        14.9110   57.6570   33.8160 C.3    89  LYS89       0.1561
     88  C         14.8880   57.6790   32.2650 C.2    89  LYS89       0.2260
     89  O         15.4580   56.8090   31.5960 O.2    89  LYS89      -0.2867
     90  CB        13.6490   56.9960   34.3840 C.3    89  LYS89       0.0271
     91  CG        13.2510   55.6680   33.7460 C.3    89  LYS89       0.0035
     92  CD        14.3920   54.6720   33.7210 C.3    89  LYS89       0.0206
     93  CE        13.8710   53.2930   33.3390 C.3    89  LYS89       0.1093
     94  NZ        12.9010   53.3710   32.1970 N.3    89  LYS89      -0.1314
     95  N         17.6380   56.5150   29.3350 N.3    93  GLU93      -0.1245
     96  CA        17.1380   55.6140   28.3030 C.3    93  GLU93       0.1567
     97  C         17.5430   56.0980   26.9270 C.2    93  GLU93       0.2260
     98  O         17.9510   55.3120   26.0740 O.2    93  GLU93      -0.2867
     99  CB        15.6140   55.4850   28.3990 C.3    93  GLU93       0.0388
    100  CG        15.1520   54.4350   29.3930 C.3    93  GLU93       0.1160
    101  CD        15.7130   53.0630   29.0570 C.2    93  GLU93       0.3649
    102  OE1       15.8330   52.7630   27.8550 O.co2  93  GLU93      -0.2457
    103  OE2       16.0290   52.2820   29.9790 O.co2  93  GLU93      -0.2457
    104  N          5.3010   58.3900   18.2350 N.3   197  ALA197     -0.1231
    105  CA         4.8250   57.2410   18.9790 C.3   197  ALA197      0.1694
    106  C          4.2740   56.2170   18.0150 C.2   197  ALA197      0.2592
    107  O          3.7850   56.5650   16.9500 O.2   197  ALA197     -0.2718
    108  CB         3.7730   57.6730   19.8970 C.3   197  ALA197      0.0304
    109  N          4.3570   54.9470   18.3670 N.am  198  ASP198     -0.1974
    110  CA         3.8050   53.9380   17.4840 C.3   198  ASP198      0.1709
    111  C          2.4770   53.4580   18.0730 C.2   198  ASP198      0.2293
    112  O          2.0680   53.9050   19.1430 O.2   198  ASP198     -0.2864
    113  CB         4.7730   52.7820   17.3590 C.3   198  ASP198      0.1436
    114  CG         4.7330   51.8890   18.5450 C.2   198  ASP198      0.3671
    115  OD1        4.5670   52.4260   19.6500 O.co2 198  ASP198     -0.2456
    116  OD2        4.8630   50.6530   18.3840 O.co2 198  ASP198     -0.2456
    117  N          0.4500   50.9010   20.0350 N.3   200  ASP200     -0.1239
    118  CA         0.7490   49.8150   20.9590 C.3   200  ASP200      0.1674
    119  C         -0.4570   48.9350   21.2340 C.2   200  ASP200      0.2266
    120  O         -1.4790   49.3990   21.7360 O.2   200  ASP200     -0.2867
    121  CB         1.2910   50.3600   22.2730 C.3   200  ASP200      0.1410
    122  CG         2.7100   50.8680   22.1400 C.2   200  ASP200      0.3668
    123  OD1        3.2710   51.3830   23.1360 O.co2 200  ASP200     -0.2456
    124  OD2        3.2680   50.7550   21.0300 O.co2 200  ASP200     -0.2456
    125  N          5.7600   45.6890   17.8460 N.3   282  HIS282     -0.1241
    126  CA         6.0670   44.5850   18.7480 C.3   282  HIS282      0.1621
    127  C          4.8740   43.9120   19.3800 C.2   282  HIS282      0.2264
    128  O          3.7330   44.2680   19.1070 O.2   282  HIS282     -0.2867
    129  CB         6.9730   45.0790   19.8630 C.3   282  HIS282      0.0745
    130  CG         6.3650   46.1840   20.6650 C.ar  282  HIS282      0.0817
    131  ND1        6.4940   47.5110   20.3180 N.ar  282  HIS282     -0.2268
    132  CD2        5.5360   46.1540   21.7370 C.ar  282  HIS282      0.1154
    133  CE1        5.7680   48.2530   21.1340 C.ar  282  HIS282      0.1986
    134  NE2        5.1750   47.4540   22.0030 N.ar  282  HIS282     -0.2212
    135  N          0.7880   44.1780   25.2360 N.3   285  GLU285     -0.1245
    136  CA         1.0240   44.5670   26.6340 C.3   285  GLU285      0.1567
    137  C          0.8870   43.3970   27.5940 C.2   285  GLU285      0.2260
    138  O          1.4280   43.4170   28.6970 O.2   285  GLU285     -0.2867
    139  CB         0.0670   45.6960   27.0390 C.3   285  GLU285      0.0388
    140  CG         0.0680   46.0410   28.5130 C.3   285  GLU285      0.1160
    141  CD         1.4060   46.5470   29.0530 C.2   285  GLU285      0.3649
    142  OE1        1.5600   46.5820   30.3020 O.co2 285  GLU285     -0.2457
    143  OE2        2.2920   46.9120   28.2510 O.co2 285  GLU285     -0.2457
    144  N          4.1920   42.0350   28.4490 N.3   288  ASN288     -0.1240
    145  CA         5.0900   43.0240   29.0260 C.3   288  ASN288      0.1653
    146  C          4.9480   42.7740   30.5120 C.2   288  ASN288      0.2266
    147  O          4.1550   43.4110   31.1910 O.2   288  ASN288     -0.2867
    148  CB         4.6220   44.4270   28.6320 C.3   288  ASN288      0.1155
    149  CG         5.4140   45.5290   29.3200 C.2   288  ASN288      0.2627
    150  OD1        6.4760   45.2740   29.9150 O.2   288  ASN288     -0.2716
    151  ND2        4.9020   46.7670   29.2460 N.am  288  ASN288     -0.0877
    152  N          7.4710   45.6340   33.2130 N.3   291  PHE291     -0.1241
    153  CA         7.0880   47.0170   33.3150 C.3   291  PHE291      0.1605
    154  C          5.6660   47.1610   32.7840 C.2   291  PHE291      0.2264
    155  O          5.4340   47.7900   31.7530 O.2   291  PHE291     -0.2867
    156  CB         8.0780   47.8670   32.5240 C.3   291  PHE291      0.0534
    157  CG         9.5230   47.6050   32.8800 C.ar  291  PHE291     -0.0203
    158  CD1       10.2840   46.6990   32.1500 C.ar  291  PHE291     -0.0042
    159  CD2       10.1220   48.2500   33.9650 C.ar  291  PHE291     -0.0042
    160  CE1       11.6120   46.4370   32.4930 C.ar  291  PHE291     -0.0003
    161  CE2       11.4540   47.9960   34.3160 C.ar  291  PHE291     -0.0003
    162  CZ        12.1920   47.0900   33.5790 C.ar  291  PHE291     -0.0000
    163  N          1.7930   48.3550   32.3830 N.3   293  GLU293     -0.1245
    164  CA         1.2130   49.6820   32.3440 C.3   293  GLU293      0.1567
    165  C         -0.2880   49.5460   32.4350 C.2   293  GLU293      0.2260
    166  O         -0.9010   48.8280   31.6500 O.2   293  GLU293     -0.2867
    167  CB         1.5470   50.3720   31.0210 C.3   293  GLU293      0.0388
    168  CG         3.0060   50.7390   30.7890 C.3   293  GLU293      0.1160
    169  CD         3.4050   52.0020   31.5300 C.2   293  GLU293      0.3649
    170  OE1        2.5990   52.9660   31.5300 O.co2 293  GLU293     -0.2457
    171  OE2        4.5240   52.0290   32.0970 O.co2 293  GLU293     -0.2457
@<TRIPOS>BOND
     1    20    21    1
     2   107   106    2
     3   113   110    1
     4   113   114    1
     5   110   111    1
     6   110   109    1
     7    21    22    1
     8    21    24    1
     9   125   126    1
    10    29    22   am
    11    29    30    1
    12    22    23    2
    13   106   109   am
    14   106   105    1
    15   111   112    2
    16   104   105    1
    17    30    31    1
    18   116   114   ar
    19   114   115   ar
    20   126   127    1
    21   126   129    1
    22    24    25    1
    23   105   108    1
    24   128   127    2
    25    31    33   am
    26    31    32    2
    27    15    14    2
    28   129   130    1
    29    25    26    1
    30    47    45    1
    31    33    34    1
    32   117   118    1
    33   131   130   ar
    34   131   133   ar
    35   130   132   ar
    36    14    13    1
    37    26    27    1
    38    45    46    1
    39    45    42    1
    40   118   119    1
    41   118   121    1
    42   124   122   ar
    43   133   134   ar
    44   119   120    2
    45    34    35    1
    46    34    37    1
    47    35    36    2
    48    37    38    1
    49    41    42    1
    50   132   134   ar
    51    38    39    1
    52    38    40    1
    53    12    13    1
    54    16    13    1
    55    16    17    1
    56    19    17   am
    57    42    43    1
    58   122   121    1
    59   122   123   ar
    60    27    28    1
    61    17    18    2
    62     4     3    2
    63    44    43    2
    64    75    76    1
    65    75    72    1
    66    43    48   am
    67     1     2    1
    68    72    73    1
    69    72    71    1
    70     3     2    1
    71    73    74    2
    72    48    49    1
    73     2     5    1
    74    71    64   am
    75    61    60    2
    76     5     6    1
    77    58    59    1
    78    58    50   am
    79    65    64    2
    80   135   136    1
    81    64    63    1
    82     6     7    1
    83    57    55   ar
    84    57    56   ar
    85    55    53   ar
    86    60    59    1
    87    60    62   am
    88    49    50    1
    89    49    52    1
    90    50    51    2
    91    98    97    2
    92    56    54   ar
    93    53    52    1
    94    53    54   ar
    95    63    62    1
    96    63    66    1
    97    85    84    1
    98     8     7    1
    99     8     9    2
   100   136   139    1
   101   136   137    1
   102    84    83    1
   103    97    96    1
   104   139   140    1
   105    11     9    1
   106     9    10    1
   107   137   138    2
   108    66    67    1
   109   102   101   ar
   110    77    78    1
   111   143   141   ar
   112    96    99    1
   113    96    95    1
   114    68    67    1
   115    68    69    1
   116    83    82    1
   117    99   100    1
   118   144   145    1
   119    81    82    1
   120    81    78    1
   121   140   141    1
   122    69    70    1
   123   148   145    1
   124   148   149    1
   125    78    79    1
   126   145   146    1
   127   141   142   ar
   128   101   100    1
   129   101   103   ar
   130   151   149   am
   131   149   150    2
   132    79    80    2
   133   146   147    2
   134   168   167    1
   135   168   169    1
   136   167   164    1
   137   169   170   ar
   138   169   171   ar
   139    89    88    2
   140   166   165    2
   141   155   154    2
   142   158   160   ar
   143   158   157   ar
   144    94    93    1
   145    88    87    1
   146   164   163    1
   147   164   165    1
   148   160   162   ar
   149   156   157    1
   150   156   153    1
   151   154   153    1
   152   157   159   ar
   153   152   153    1
   154    93    92    1
   155   162   161   ar
   156    92    91    1
   157    91    90    1
   158    87    86    1
   159    87    90    1
   160   159   161   ar
