@<TRIPOS>MOLECULE
tmp/1s2aA01.pdb
 200 199 0 0 0
SMALL
GASTEIGER

@<TRIPOS>ATOM
      1  N         30.0630  -34.6450   57.3480 N.3    19  TYR19      -0.1241
      2  CA        28.6790  -34.7390   57.7650 C.3    19  TYR19       0.1605
      3  C         27.8070  -35.3200   56.6640 C.2    19  TYR19       0.2264
      4  O         27.8650  -34.8820   55.5070 O.2    19  TYR19      -0.2867
      5  CB        28.0710  -33.3980   58.1900 C.3    19  TYR19       0.0534
      6  CG        26.6370  -33.5800   58.6170 C.ar   19  TYR19      -0.0201
      7  CD1       26.3370  -34.1680   59.8440 C.ar   19  TYR19      -0.0009
      8  CD2       25.5730  -33.2510   57.7690 C.ar   19  TYR19      -0.0009
      9  CE1       25.0400  -34.3790   60.2420 C.ar   19  TYR19       0.0417
     10  CE2       24.2580  -33.4720   58.1660 C.ar   19  TYR19       0.0417
     11  CZ        24.0000  -34.0320   59.4050 C.ar   19  TYR19       0.1957
     12  OH        22.7000  -34.2500   59.8440 O.3    19  TYR19      -0.2866
     13  N         28.5960  -34.0340   67.0920 N.3    49  LEU49      -0.1231
     14  CA        27.2400  -33.9570   66.5510 C.3    49  LEU49       0.1693
     15  C         27.0080  -34.8940   65.3630 C.2    49  LEU49       0.2592
     16  O         25.8830  -35.3810   65.1540 O.2    49  LEU49      -0.2718
     17  CB        26.9470  -32.5130   66.1290 C.3    49  LEU49       0.0284
     18  CG        25.5120  -32.2300   65.6700 C.3    49  LEU49       0.0019
     19  CD1       24.5800  -32.2750   66.8460 C.3    49  LEU49       0.0001
     20  CD2       25.4330  -30.8950   64.9510 C.3    49  LEU49       0.0001
     21  N         28.0520  -35.1310   64.5690 N.am   50  TYR50      -0.1976
     22  CA        27.8990  -35.8370   63.2940 C.3    50  TYR50       0.1639
     23  C         27.6890  -37.3430   63.4410 C.2    50  TYR50       0.2290
     24  O         27.3130  -38.0020   62.4700 O.2    50  TYR50      -0.2864
     25  CB        29.0860  -35.5710   62.3540 C.3    50  TYR50       0.0560
     26  CG        29.3910  -34.1140   62.0840 C.ar   50  TYR50      -0.0198
     27  CD1       30.5800  -33.7510   61.4800 C.ar   50  TYR50      -0.0009
     28  CD2       28.4830  -33.0940   62.4210 C.ar   50  TYR50      -0.0009
     29  CE1       30.8880  -32.4240   61.2550 C.ar   50  TYR50       0.0417
     30  CE2       28.7750  -31.7800   62.1980 C.ar   50  TYR50       0.0417
     31  CZ        29.9850  -31.4420   61.6020 C.ar   50  TYR50       0.1957
     32  OH        30.3250  -30.1460   61.3710 O.3    50  TYR50      -0.2866
     33  N         30.3690  -30.1080   71.3360 N.3    81  TRP81      -0.1227
     34  CA        28.9600  -29.8130   71.1560 C.3    81  TRP81       0.1737
     35  C         28.4300  -28.8550   72.2470 C.2    81  TRP81       0.2596
     36  O         28.9980  -28.7330   73.3380 O.2    81  TRP81      -0.2718
     37  CB        28.1280  -31.1020   71.0070 C.3    81  TRP81       0.0564
     38  CG        26.6920  -30.7860   70.7510 C.ar   81  TRP81       0.0003
     39  CD1       25.6320  -31.1520   71.5250 C.ar   81  TRP81       0.0946
     40  CD2       26.1580  -29.9590   69.7020 C.ar   81  TRP81       0.0152
     41  NE1       24.4750  -30.6260   71.0110 N.ar   81  TRP81      -0.2442
     42  CE2       24.7630  -29.8760   69.9060 C.ar   81  TRP81       0.0810
     43  CE3       26.7170  -29.2610   68.6220 C.ar   81  TRP81       0.0012
     44  CZ2       23.9200  -29.1570   69.0550 C.ar   81  TRP81       0.0191
     45  CZ3       25.8830  -28.5400   67.7850 C.ar   81  TRP81       0.0001
     46  CH2       24.4930  -28.4880   68.0140 C.ar   81  TRP81       0.0015
     47  N         27.3370  -28.1650   71.9140 N.am   82  SER82      -0.1952
     48  CA        26.8430  -27.0390   72.6820 C.3    82  SER82       0.1924
     49  C         26.2620  -27.3480   74.0700 C.2    82  SER82       0.2314
     50  O         26.1050  -26.4430   74.8940 O.2    82  SER82      -0.2863
     51  CB        25.8200  -26.2910   71.8340 C.3    82  SER82       0.2116
     52  OG        26.4450  -25.8100   70.6580 O.3    82  SER82      -0.2180
     53  N         31.8760  -25.7610   68.7130 N.3   112  HIS112     -0.1226
     54  CA        31.0660  -25.9100   67.4900 C.3   112  HIS112      0.1752
     55  C         30.1830  -24.6860   67.2030 C.2   112  HIS112      0.2596
     56  O         29.9440  -24.3220   66.0490 O.2   112  HIS112     -0.2718
     57  CB        30.1850  -27.1550   67.6040 C.3   112  HIS112      0.0759
     58  CG        29.8140  -27.7840   66.2920 C.ar  112  HIS112      0.0818
     59  ND1       29.4390  -29.1090   66.1870 N.ar  112  HIS112     -0.2268
     60  CD2       29.7460  -27.2760   65.0360 C.ar  112  HIS112      0.1154
     61  CE1       29.1550  -29.3880   64.9280 C.ar  112  HIS112      0.1986
     62  NE2       29.3540  -28.2990   64.2030 N.ar  112  HIS112     -0.2212
     63  N         29.7030  -24.0600   68.2680 N.am  113  SER113     -0.1952
     64  CA        28.7940  -22.9260   68.1530 C.3   113  SER113      0.1924
     65  C         28.7930  -22.1190   69.4560 C.2   113  SER113      0.2314
     66  O         29.0060  -22.6880   70.5280 O.2   113  SER113     -0.2863
     67  CB        27.3940  -23.4680   67.8590 C.3   113  SER113      0.2116
     68  OG        26.3690  -22.5030   68.0580 O.3   113  SER113     -0.2180
     69  N         26.2070  -20.9150   70.7840 N.3   115  MET115     -0.1245
     70  CA        24.8780  -21.0390   71.3400 C.3   115  MET115      0.1570
     71  C         24.7800  -22.1800   72.3500 C.2   115  MET115      0.2261
     72  O         24.3490  -23.2880   72.0160 O.2   115  MET115     -0.2867
     73  CB        23.8940  -21.2440   70.2040 C.3   115  MET115      0.0387
     74  CG        23.7110  -20.0080   69.3740 C.3   115  MET115      0.0595
     75  SD        22.4660  -20.2210   68.1080 S.3   115  MET115     -0.1393
     76  CE        23.3370  -21.1540   66.9960 C.3   115  MET115      0.0692
     77  N         31.3040  -20.6550   64.1440 N.3   162  ASN162     -0.1240
     78  CA        30.0470  -19.8980   64.1720 C.3   162  ASN162      0.1653
     79  C         30.0510  -18.6750   65.0810 C.2   162  ASN162      0.2266
     80  O         28.9890  -18.2050   65.4890 O.2   162  ASN162     -0.2867
     81  CB        28.8700  -20.8180   64.5130 C.3   162  ASN162      0.1155
     82  CG        28.6360  -21.8700   63.4410 C.2   162  ASN162      0.2627
     83  OD1       28.3800  -21.5280   62.2920 O.2   162  ASN162     -0.2716
     84  ND2       28.7690  -23.1540   63.8030 N.am  162  ASN162     -0.0877
     85  N         29.8280  -20.3680   58.1850 N.3   187  GLU187     -0.1245
     86  CA        29.1340  -20.5110   56.9030 C.3   187  GLU187      0.1567
     87  C         29.6690  -19.4440   55.9590 C.2   187  GLU187      0.2260
     88  O         29.6720  -18.2530   56.2840 O.2   187  GLU187     -0.2867
     89  CB        27.6090  -20.3950   57.0580 C.3   187  GLU187      0.0388
     90  CG        26.9200  -20.6900   55.7420 C.3   187  GLU187      0.1160
     91  CD        25.4030  -20.6090   55.7540 C.2   187  GLU187      0.3649
     92  OE1       24.7720  -20.7470   56.8180 O.co2 187  GLU187     -0.2457
     93  OE2       24.8460  -20.4290   54.6560 O.co2 187  GLU187     -0.2457
     94  N         32.5520  -23.4390   55.7850 N.3   211  TYR211     -0.1227
     95  CA        31.6370  -24.5560   55.6220 C.3   211  TYR211      0.1736
     96  C         30.4300  -24.1610   54.7800 C.2   211  TYR211      0.2596
     97  O         30.1340  -22.9800   54.6100 O.2   211  TYR211     -0.2718
     98  CB        31.2400  -25.1820   56.9740 C.3   211  TYR211      0.0548
     99  CG        30.1960  -24.4630   57.8090 C.ar  211  TYR211     -0.0200
    100  CD1       30.5490  -23.8400   59.0030 C.ar  211  TYR211     -0.0009
    101  CD2       28.8630  -24.4310   57.4290 C.ar  211  TYR211     -0.0009
    102  CE1       29.6050  -23.2160   59.8010 C.ar  211  TYR211      0.0417
    103  CE2       27.9010  -23.7830   58.2040 C.ar  211  TYR211      0.0417
    104  CZ        28.2750  -23.1910   59.4040 C.ar  211  TYR211      0.1957
    105  OH        27.3330  -22.5450   60.1710 O.3   211  TYR211     -0.2866
    106  N         29.7530  -25.1780   54.2480 N.am  212  SER212     -0.1952
    107  CA        28.6720  -24.9930   53.2900 C.3   212  SER212      0.1924
    108  C         29.1330  -24.1100   52.1200 C.2   212  SER212      0.2314
    109  O         28.3650  -23.3230   51.5550 O.2   212  SER212     -0.2863
    110  CB        27.4080  -24.4700   53.9810 C.3   212  SER212      0.2116
    111  OG        26.9040  -25.4490   54.8650 O.3   212  SER212     -0.2180
    112  N         25.6100  -25.8880   51.0740 N.3   216  SER216     -0.1202
    113  CA        25.0040  -26.7450   52.1050 C.3   216  SER216      0.2020
    114  C         24.2580  -27.9210   51.4960 C.2   216  SER216      0.2619
    115  O         24.0230  -27.9860   50.2830 O.2   216  SER216     -0.2717
    116  CB        24.0810  -25.9690   53.0630 C.3   216  SER216      0.2103
    117  OG        22.7400  -25.9610   52.5990 O.3   216  SER216     -0.2182
    118  N         23.9030  -28.8550   52.3690 N.am  217  GLN217     -0.1965
    119  CA        23.0980  -30.0190   51.9850 C.3   217  GLN217      0.1733
    120  C         21.5960  -29.7280   52.0560 C.2   217  GLN217      0.2616
    121  O         20.7810  -30.6250   51.8450 O.2   217  GLN217     -0.2715
    122  CB        23.4720  -31.2070   52.8770 C.3   217  GLN217      0.0408
    123  CG        24.9670  -31.5020   52.8320 C.3   217  GLN217      0.0908
    124  CD        25.3500  -32.8250   53.4670 C.2   217  GLN217      0.2608
    125  OE1       24.7140  -33.8580   53.2130 O.2   217  GLN217     -0.2717
    126  NE2       26.3870  -32.8000   54.2990 N.am  217  GLN217     -0.0878
    127  N         21.2350  -28.4930   52.3940 N.am  218  ARG218     -0.1963
    128  CA        19.8550  -28.0060   52.2850 C.3   218  ARG218      0.1729
    129  C         18.8860  -28.8320   53.1310 C.2   218  ARG218      0.2616
    130  O         17.7740  -29.1680   52.7030 O.2   218  ARG218     -0.2715
    131  CB        19.4190  -27.9380   50.8120 C.3   218  ARG218      0.0348
    132  CG        20.3020  -27.0130   49.9660 C.3   218  ARG218      0.0492
    133  CD        19.8960  -26.8940   48.5090 C.3   218  ARG218      0.2205
    134  NE        18.5580  -26.3310   48.3710 N.pl3 218  ARG218     -0.0865
    135  CZ        18.2710  -25.0340   48.3840 C.cat 218  ARG218      0.5346
    136  NH1       19.2170  -24.1190   48.5200 N.pl3 218  ARG218      0.1354
    137  NH2       17.0090  -24.6530   48.2650 N.pl3 218  ARG218      0.1354
    138  N         19.3290  -29.1260   54.3500 N.am  219  ASP219     -0.1971
    139  CA        18.5600  -29.9310   55.2790 C.3   219  ASP219      0.1709
    140  C         17.2680  -29.2410   55.6460 C.2   219  ASP219      0.2293
    141  O         17.2800  -28.0980   56.0650 O.2   219  ASP219     -0.2864
    142  CB        19.3640  -30.2020   56.5420 C.3   219  ASP219      0.1436
    143  CG        18.7920  -31.3510   57.3390 C.2   219  ASP219      0.3671
    144  OD1       19.5340  -32.3150   57.6090 O.co2 219  ASP219     -0.2456
    145  OD2       17.5930  -31.3940   57.7000 O.co2 219  ASP219     -0.2456
    146  N         16.5530  -26.9110   58.8260 N.3   222  TRP222     -0.1227
    147  CA        17.1730  -25.6020   58.9980 C.3   222  TRP222      0.1737
    148  C         17.1390  -24.6880   57.7850 C.2   222  TRP222      0.2595
    149  O         17.2900  -23.4750   57.9420 O.2   222  TRP222     -0.2718
    150  CB        18.6270  -25.7970   59.3890 C.3   222  TRP222      0.0564
    151  CG        18.7780  -26.6010   60.6170 C.ar  222  TRP222      0.0003
    152  CD1       18.1570  -26.3960   61.8220 C.ar  222  TRP222      0.0946
    153  CD2       19.5980  -27.7550   60.7790 C.ar  222  TRP222      0.0152
    154  NE1       18.5530  -27.3560   62.7230 N.ar  222  TRP222     -0.2442
    155  CE2       19.4360  -28.2040   62.1100 C.ar  222  TRP222      0.0810
    156  CE3       20.4580  -28.4630   59.9350 C.ar  222  TRP222      0.0012
    157  CZ2       20.1050  -29.3210   62.6100 C.ar  222  TRP222      0.0191
    158  CZ3       21.1150  -29.5760   60.4320 C.ar  222  TRP222      0.0001
    159  CH2       20.9340  -29.9930   61.7580 C.ar  222  TRP222      0.0015
    160  N         16.9320  -25.2540   56.5920 N.am  223  VAL223     -0.1980
    161  CA        17.1230  -24.5270   55.3450 C.3   223  VAL223      0.1595
    162  C         15.7990  -24.3580   54.5960 C.2   223  VAL223      0.2287
    163  O         15.0400  -25.3240   54.3740 O.2   223  VAL223     -0.2864
    164  CB        18.1360  -25.2460   54.4420 C.3   223  VAL223      0.0276
    165  CG1       18.3490  -24.4880   53.1400 C.3   223  VAL223      0.0022
    166  CG2       19.4350  -25.4570   55.1810 C.3   223  VAL223      0.0022
    167  N         22.1310  -20.0750   54.8130 N.3   300  TYR300     -0.1227
    168  CA        21.2240  -21.1870   54.6100 C.3   300  TYR300      0.1736
    169  C         20.6590  -21.7250   55.9230 C.2   300  TYR300      0.2595
    170  O         19.4900  -22.0740   55.9770 O.2   300  TYR300     -0.2718
    171  CB        21.9170  -22.3120   53.8280 C.3   300  TYR300      0.0548
    172  CG        22.0830  -21.9870   52.3590 C.ar  300  TYR300     -0.0200
    173  CD1       20.9860  -21.9960   51.5050 C.ar  300  TYR300     -0.0009
    174  CD2       23.3280  -21.6560   51.8270 C.ar  300  TYR300     -0.0009
    175  CE1       21.1250  -21.6890   50.1520 C.ar  300  TYR300      0.0417
    176  CE2       23.4750  -21.3600   50.4780 C.ar  300  TYR300      0.0417
    177  CZ        22.3750  -21.3710   49.6480 C.ar  300  TYR300      0.1957
    178  OH        22.5140  -21.0630   48.3110 O.3   300  TYR300     -0.2866
    179  N         21.4770  -21.7890   56.9730 N.am  301  PHE301     -0.1976
    180  CA        20.9900  -22.1500   58.3110 C.3   301  PHE301      0.1639
    181  C         20.1470  -20.9730   58.7690 C.2   301  PHE301      0.2290
    182  O         20.6690  -19.8920   59.0300 O.2   301  PHE301     -0.2864
    183  CB        22.1850  -22.3390   59.2440 C.3   301  PHE301      0.0560
    184  CG        21.8480  -22.6910   60.6810 C.ar  301  PHE301     -0.0200
    185  CD1       21.7290  -24.0230   61.0780 C.ar  301  PHE301     -0.0042
    186  CD2       21.7520  -21.6920   61.6510 C.ar  301  PHE301     -0.0042
    187  CE1       21.4710  -24.3540   62.4130 C.ar  301  PHE301     -0.0003
    188  CE2       21.5000  -22.0160   62.9910 C.ar  301  PHE301     -0.0003
    189  CZ        21.3550  -23.3510   63.3650 C.ar  301  PHE301     -0.0000
    190  N         16.8210  -21.8840   66.4580 N.3   306  PHE306     -0.1241
    191  CA        18.0100  -21.2030   66.9730 C.3   306  PHE306      0.1605
    192  C         18.0330  -19.6630   66.8720 C.2   306  PHE306      0.2264
    193  O         18.8380  -19.0280   67.5490 O.2   306  PHE306     -0.2867
    194  CB        19.2470  -21.7270   66.2500 C.3   306  PHE306      0.0534
    195  CG        19.5900  -23.1600   66.5880 C.ar  306  PHE306     -0.0203
    196  CD1       19.0310  -24.2120   65.8670 C.ar  306  PHE306     -0.0042
    197  CD2       20.4620  -23.4540   67.6350 C.ar  306  PHE306     -0.0042
    198  CE1       19.3520  -25.5470   66.1760 C.ar  306  PHE306     -0.0003
    199  CE2       20.7950  -24.7830   67.9500 C.ar  306  PHE306     -0.0003
    200  CZ        20.2340  -25.8280   67.2170 C.ar  306  PHE306     -0.0000
@<TRIPOS>BOND
     1   137   135    1
     2   178   177    1
     3   134   135    2
     4   134   133    1
     5   135   136    1
     6   133   132    1
     7   177   175   ar
     8   177   176   ar
     9   132   131    1
    10   175   173   ar
    11   115   114    2
    12   176   174   ar
    13   131   128    1
    14   112   113    1
    15   114   113    1
    16   114   118   am
    17   173   172   ar
    18   109   108    2
    19   174   172   ar
    20   121   120    2
    21   119   120    1
    22   119   118    1
    23   119   122    1
    24   120   127   am
    25   113   116    1
    26   108   107    1
    27   128   127    1
    28   128   129    1
    29   172   171    1
    30   117   116    1
    31   130   129    2
    32   123   122    1
    33   123   124    1
    34   129   138   am
    35   165   164    1
    36   125   124    2
    37   107   110    1
    38   107   106    1
    39   124   126   am
    40   171   168    1
    41   110   111    1
    42   106    96   am
    43   138   139    1
    44   163   162    2
    45   164   166    1
    46   164   161    1
    47   162   161    1
    48   168   167    1
    49   168   169    1
    50    97    96    2
    51    93    91   ar
    52    96    95    1
    53   139   140    1
    54   139   142    1
    55   161   160    1
    56     4     3    2
    57    95    94    1
    58    95    98    1
    59   140   141    2
    60    90    91    1
    61    90    89    1
    62    91    92   ar
    63   169   170    2
    64   169   179   am
    65    87    88    2
    66    87    86    1
    67   142   143    1
    68   160   148   am
    69     3     2    1
    70    86    89    1
    71    86    85    1
    72   179   180    1
    73    98    99    1
    74   143   144   ar
    75   143   145   ar
    76     1     2    1
    77   101    99   ar
    78   101   103   ar
    79     2     5    1
    80     8    10   ar
    81     8     6   ar
    82   148   149    2
    83   148   147    1
    84    99   100   ar
    85    10    11   ar
    86     5     6    1
    87   103   104   ar
    88   180   181    1
    89   180   183    1
    90     6     7   ar
    91   181   182    2
    92   146   147    1
    93   147   150    1
    94   100   102   ar
    95   183   184    1
    96   150   151    1
    97   104   102   ar
    98   104   105    1
    99    11    12    1
   100    11     9   ar
   101     7     9   ar
   102   156   158   ar
   103   156   153   ar
   104   158   159   ar
   105   151   153   ar
   106   151   152   ar
   107   184   185   ar
   108   184   186   ar
   109   153   155   ar
   110   185   187   ar
   111    29    27   ar
   112    29    31   ar
   113    32    31    1
   114    27    26   ar
   115    31    30   ar
   116   186   188   ar
   117   159   157   ar
   118   152   154   ar
   119    26    25    1
   120    26    28   ar
   121   155   157   ar
   122   155   154   ar
   123    30    28   ar
   124    83    82    2
   125    25    22    1
   126   187   189   ar
   127    24    23    2
   128   188   189   ar
   129    22    23    1
   130    22    21    1
   131    82    84   am
   132    82    81    1
   133    77    78    1
   134    78    81    1
   135    78    79    1
   136    62    61   ar
   137    62    60   ar
   138    21    15   am
   139    61    59   ar
   140    20    18    1
   141    60    58   ar
   142    79    80    2
   143    16    15    2
   144    15    14    1
   145    18    17    1
   146    18    19    1
   147   196   198   ar
   148   196   195   ar
   149    56    55    2
   150    17    14    1
   151   198   200   ar
   152    59    58   ar
   153   194   195    1
   154   194   191    1
   155    58    57    1
   156   190   191    1
   157    14    13    1
   158   195   197   ar
   159   192   191    1
   160   192   193    2
   161    76    75    1
   162    55    54    1
   163    55    63   am
   164   200   199   ar
   165    54    57    1
   166    54    53    1
   167   197   199   ar
   168    45    46   ar
   169    45    43   ar
   170    67    68    1
   171    67    64    1
   172    46    44   ar
   173    75    74    1
   174    64    63    1
   175    64    65    1
   176    43    40   ar
   177    44    42   ar
   178    74    73    1
   179    65    66    2
   180    40    42   ar
   181    40    38   ar
   182    42    41   ar
   183    73    70    1
   184    52    51    1
   185    38    37    1
   186    38    39   ar
   187    69    70    1
   188    37    34    1
   189    41    39   ar
   190    34    33    1
   191    34    35    1
   192    70    71    1
   193    51    48    1
   194    47    35   am
   195    47    48    1
   196    72    71    2
   197    35    36    2
   198    48    49    1
   199    49    50    2
