@<TRIPOS>MOLECULE
tmp/1s2cA02.pdb
 71 66 0 0 0
SMALL
GASTEIGER

@<TRIPOS>ATOM
      1  N         50.5550  -26.1740   50.3210 N.3     1  GLN1       -0.1231
      2  CA        49.0970  -26.4770   50.4250 C.3     1  GLN1        0.1698
      3  C         48.5960  -26.3690   51.8730 C.2     1  GLN1        0.2592
      4  O         47.5020  -26.8460   52.1950 O.2     1  GLN1       -0.2718
      5  CB        48.8090  -27.8620   49.8370 C.3     1  GLN1        0.0381
      6  CG        48.6500  -27.8330   48.3120 C.3     1  GLN1        0.0905
      7  CD        48.5170  -29.2010   47.6640 C.2     1  GLN1        0.2608
      8  OE1       48.5560  -29.3070   46.4320 O.2     1  GLN1       -0.2717
      9  NE2       48.3580  -30.2450   48.4720 N.am    1  GLN1       -0.0878
     10  N         49.3940  -25.7250   52.7230 N.am    2  CYS2       -0.1956
     11  CA        49.0550  -25.4950   54.1240 C.3     2  CYS2        0.1843
     12  C         49.1590  -24.0180   54.4930 C.2     2  CYS2        0.2625
     13  O         49.8160  -23.2330   53.8020 O.2     2  CYS2       -0.2714
     14  CB        50.0030  -26.2720   55.0370 C.3     2  CYS2        0.0997
     15  SG        49.8300  -28.0610   54.9210 S.3     2  CYS2       -0.0797
     16  N         48.5220  -23.6590   55.6010 N.am    3  VAL3       -0.1963
     17  CA        48.6650  -22.3380   56.1900 C.3     3  VAL3        0.1727
     18  C         49.2080  -22.4900   57.6090 C.2     3  VAL3        0.2616
     19  O         48.8220  -23.4080   58.3400 O.2     3  VAL3       -0.2715
     20  CB        47.3260  -21.5350   56.1830 C.3     3  VAL3        0.0290
     21  CG1       46.2030  -22.3180   56.8170 C.3     3  VAL3        0.0023
     22  CG2       47.5010  -20.1850   56.8860 C.3     3  VAL3        0.0023
     23  N         50.1210  -21.5970   57.9850 N.am    4  LYS4       -0.1977
     24  CA        50.6910  -21.6050   59.3180 C.3     4  LYS4        0.1596
     25  C         49.7340  -20.9100   60.2710 C.2     4  LYS4        0.2287
     26  O         49.3400  -19.7580   60.0590 O.2     4  LYS4       -0.2864
     27  CB        52.0600  -20.9230   59.3460 C.3     4  LYS4        0.0298
     28  CG        52.8440  -21.2210   60.6150 C.3     4  LYS4        0.0038
     29  CD        54.2120  -20.5590   60.6110 C.3     4  LYS4        0.0206
     30  CE        54.9940  -20.8900   61.8620 C.3     4  LYS4        0.1093
     31  NZ        56.3760  -20.3170   61.8320 N.3     4  LYS4       -0.1314
     32  N         44.9010  -26.3380   53.4870 N.3    13  VAL13      -0.1245
     33  CA        43.9120  -25.3290   53.1020 C.3    13  VAL13       0.1561
     34  C         42.6340  -25.9010   52.4700 C.2    13  VAL13       0.2260
     35  O         41.6580  -25.1760   52.3140 O.2    13  VAL13      -0.2867
     36  CB        44.5510  -24.2390   52.2050 C.3    13  VAL13       0.0252
     37  CG1       45.7310  -23.6270   52.9120 C.3    13  VAL13       0.0019
     38  CG2       44.9690  -24.7910   50.8350 C.3    13  VAL13       0.0019
     39  N         42.6050  -17.7040   61.1390 N.3   207  VAL207     -0.1245
     40  CA        42.2070  -18.2550   59.8620 C.3   207  VAL207      0.1561
     41  C         40.6960  -18.3790   59.8330 C.2   207  VAL207      0.2260
     42  O         40.0980  -18.8730   60.7810 O.2   207  VAL207     -0.2867
     43  CB        42.8370  -19.6410   59.6310 C.3   207  VAL207      0.0252
     44  CG1       42.3470  -20.2360   58.3170 C.3   207  VAL207      0.0019
     45  CG2       44.3570  -19.5360   59.6330 C.3   207  VAL207      0.0019
     46  N         40.0190  -20.0850   48.3450 N.3   256  LEU256     -0.1245
     47  CA        41.4740  -20.1630   48.4700 C.3   256  LEU256      0.1561
     48  C         42.1520  -18.8620   48.0550 C.2   256  LEU256      0.2260
     49  O         43.1400  -18.4330   48.6800 O.2   256  LEU256     -0.2867
     50  CB        42.0230  -21.3210   47.6310 C.3   256  LEU256      0.0270
     51  CG        41.6310  -22.7350   48.0550 C.3   256  LEU256      0.0019
     52  CD1       42.3980  -23.7330   47.2160 C.3   256  LEU256      0.0001
     53  CD2       41.8820  -22.9910   49.5290 C.3   256  LEU256      0.0001
     54  N         42.3130  -16.2610   50.6910 N.3   259  GLY259     -0.1210
     55  CA        43.0150  -16.6540   51.9020 C.3   259  GLY259      0.1956
     56  C         42.1400  -17.3190   52.9490 C.2   259  GLY259      0.2612
     57  O         42.4500  -17.2710   54.1450 O.2   259  GLY259     -0.2717
     58  N         41.0680  -17.9580   52.4890 N.am  260  VAL260     -0.1965
     59  CA        40.1190  -18.6890   53.3150 C.3   260  VAL260      0.1727
     60  C         40.3770  -20.1800   53.1160 C.2   260  VAL260      0.2616
     61  O         40.4600  -20.6590   51.9830 O.2   260  VAL260     -0.2715
     62  CB        38.6710  -18.3700   52.8850 C.3   260  VAL260      0.0290
     63  CG1       37.6530  -19.2960   53.5590 C.3   260  VAL260      0.0023
     64  CG2       38.3540  -16.9100   53.1540 C.3   260  VAL260      0.0023
     65  N         40.5280  -20.9000   54.2190 N.am  261  VAL261     -0.1977
     66  CA        40.6240  -22.3500   54.1880 C.3   261  VAL261      0.1596
     67  C         39.2320  -22.8730   53.9050 C.2   261  VAL261      0.2287
     68  O         38.2640  -22.3890   54.4840 O.2   261  VAL261     -0.2864
     69  CB        41.1670  -22.8840   55.5140 C.3   261  VAL261      0.0276
     70  CG1       40.9750  -24.3970   55.6320 C.3   261  VAL261      0.0022
     71  CG2       42.6310  -22.4920   55.6470 C.3   261  VAL261      0.0022
@<TRIPOS>BOND
     1     8     7    2
     2    52    51    1
     3    50    51    1
     4    50    47    1
     5     7     6    1
     6     7     9   am
     7    48    47    1
     8    48    49    2
     9    51    53    1
    10     6     5    1
    11    46    47    1
    12     5     2    1
    13     1     2    1
    14     2     3    1
    15    54    55    1
    16    38    36    1
    17     3     4    2
    18     3    10   am
    19    55    56    1
    20    61    60    2
    21    36    37    1
    22    36    33    1
    23    35    34    2
    24    34    33    1
    25    58    56   am
    26    58    59    1
    27    10    11    1
    28    62    64    1
    29    62    59    1
    30    62    63    1
    31    56    57    2
    32    33    32    1
    33    60    59    1
    34    60    65   am
    35    13    12    2
    36    67    66    1
    37    67    68    2
    38    11    12    1
    39    11    14    1
    40    66    65    1
    41    66    69    1
    42    12    16   am
    43    15    14    1
    44    69    70    1
    45    69    71    1
    46    16    17    1
    47    20    17    1
    48    20    21    1
    49    20    22    1
    50    17    18    1
    51    18    23   am
    52    18    19    2
    53    23    24    1
    54    44    43    1
    55    24    27    1
    56    24    25    1
    57    27    28    1
    58    43    45    1
    59    43    40    1
    60    41    40    1
    61    41    42    2
    62    40    39    1
    63    26    25    2
    64    29    28    1
    65    29    30    1
    66    31    30    1
