@<TRIPOS>MOLECULE
tmp/1s2cA01.pdb
 157 159 0 0 0
SMALL
GASTEIGER

@<TRIPOS>ATOM
      1  N         30.0290  -34.4030   57.6100 N.3    19  TYR19      -0.1241
      2  CA        28.6320  -34.4900   58.0370 C.3    19  TYR19       0.1605
      3  C         27.7390  -35.0570   56.9410 C.2    19  TYR19       0.2264
      4  O         27.7740  -34.5960   55.7900 O.2    19  TYR19      -0.2867
      5  CB        28.0460  -33.1480   58.4790 C.3    19  TYR19       0.0534
      6  CG        26.6190  -33.3110   58.9560 C.ar   19  TYR19      -0.0201
      7  CD1       26.3480  -33.8610   60.2050 C.ar   19  TYR19      -0.0009
      8  CD2       25.5430  -32.9750   58.1420 C.ar   19  TYR19      -0.0009
      9  CE1       25.0540  -34.0480   60.6440 C.ar   19  TYR19       0.0417
     10  CE2       24.2250  -33.1660   58.5760 C.ar   19  TYR19       0.0417
     11  CZ        23.9940  -33.6920   59.8340 C.ar   19  TYR19       0.1957
     12  OH        22.7100  -33.8860   60.2990 O.3    19  TYR19      -0.2866
     13  N         28.6270  -33.7070   67.2710 N.3    49  LEU49      -0.1231
     14  CA        27.2840  -33.5940   66.7090 C.3    49  LEU49       0.1693
     15  C         27.0170  -34.5570   65.5490 C.2    49  LEU49       0.2592
     16  O         25.8790  -35.0020   65.3390 O.2    49  LEU49      -0.2718
     17  CB        27.0570  -32.1480   66.2360 C.3    49  LEU49       0.0284
     18  CG        25.7020  -31.8230   65.6110 C.3    49  LEU49       0.0019
     19  CD1       24.6240  -31.9210   66.6700 C.3    49  LEU49       0.0001
     20  CD2       25.7300  -30.4380   64.9420 C.3    49  LEU49       0.0001
     21  N         28.0550  -34.8830   64.7920 N.am   50  TYR50      -0.1976
     22  CA        27.8900  -35.6190   63.5450 C.3    50  TYR50       0.1639
     23  C         27.6490  -37.1110   63.7190 C.2    50  TYR50       0.2290
     24  O         27.2810  -37.7780   62.7550 O.2    50  TYR50      -0.2864
     25  CB        29.0960  -35.4020   62.6230 C.3    50  TYR50       0.0560
     26  CG        29.4120  -33.9450   62.3060 C.ar   50  TYR50      -0.0198
     27  CD1       30.5830  -33.6110   61.6400 C.ar   50  TYR50      -0.0009
     28  CD2       28.5410  -32.9060   62.6630 C.ar   50  TYR50      -0.0009
     29  CE1       30.8960  -32.2890   61.3510 C.ar   50  TYR50       0.0417
     30  CE2       28.8470  -31.5900   62.3880 C.ar   50  TYR50       0.0417
     31  CZ        30.0190  -31.2790   61.7310 C.ar   50  TYR50       0.1957
     32  OH        30.3190  -29.9650   61.4490 O.3    50  TYR50      -0.2866
     33  N         30.4220  -29.8650   71.4520 N.3    81  TRP81      -0.1241
     34  CA        29.0160  -29.5560   71.2600 C.3    81  TRP81       0.1605
     35  C         28.4960  -28.6120   72.3580 C.2    81  TRP81       0.2264
     36  O         29.0470  -28.5400   73.4580 O.2    81  TRP81      -0.2867
     37  CB        28.1590  -30.8280   71.1250 C.3    81  TRP81       0.0550
     38  CG        26.7220  -30.4950   70.8200 C.ar   81  TRP81       0.0003
     39  CD1       25.6220  -30.8810   71.5260 C.ar   81  TRP81       0.0946
     40  CD2       26.2470  -29.6420   69.7740 C.ar   81  TRP81       0.0152
     41  NE1       24.4890  -30.3320   70.9750 N.ar   81  TRP81      -0.2442
     42  CE2       24.8460  -29.5560   69.9040 C.ar   81  TRP81       0.0810
     43  CE3       26.8700  -28.9140   68.7490 C.ar   81  TRP81       0.0012
     44  CZ2       24.0540  -28.8040   69.0310 C.ar   81  TRP81       0.0191
     45  CZ3       26.0880  -28.1720   67.8840 C.ar   81  TRP81       0.0001
     46  CH2       24.6880  -28.1140   68.0370 C.ar   81  TRP81       0.0015
     47  N         31.9510  -25.5580   68.8350 N.3   112  HIS112     -0.1226
     48  CA        31.0940  -25.7150   67.6450 C.3   112  HIS112      0.1752
     49  C         30.2490  -24.4800   67.3540 C.2   112  HIS112      0.2596
     50  O         30.0200  -24.1230   66.1910 O.2   112  HIS112     -0.2718
     51  CB        30.1480  -26.9080   67.8180 C.3   112  HIS112      0.0759
     52  CG        29.6840  -27.5130   66.5290 C.ar  112  HIS112      0.0818
     53  ND1       29.6760  -28.8740   66.3190 N.ar  112  HIS112     -0.2268
     54  CD2       29.1900  -26.9540   65.3960 C.ar  112  HIS112      0.1154
     55  CE1       29.2220  -29.1260   65.1020 C.ar  112  HIS112      0.1986
     56  NE2       28.9250  -27.9760   64.5190 N.ar  112  HIS112     -0.2212
     57  N         29.7660  -23.8520   68.4200 N.am  113  SER113     -0.1952
     58  CA        28.8200  -22.7450   68.3090 C.3   113  SER113      0.1924
     59  C         28.8240  -21.9260   69.6030 C.2   113  SER113      0.2314
     60  O         29.0290  -22.4890   70.6810 O.2   113  SER113     -0.2863
     61  CB        27.4230  -23.3140   68.0220 C.3   113  SER113      0.2116
     62  OG        26.3880  -22.4140   68.3800 O.3   113  SER113     -0.2180
     63  N         26.2230  -20.6700   70.8610 N.3   115  MET115     -0.1245
     64  CA        24.8630  -20.7520   71.3700 C.3   115  MET115      0.1570
     65  C         24.7460  -21.9070   72.3610 C.2   115  MET115      0.2261
     66  O         24.3390  -23.0120   71.9970 O.2   115  MET115     -0.2867
     67  CB        23.8850  -20.9130   70.2080 C.3   115  MET115      0.0387
     68  CG        23.7040  -19.6510   69.3860 C.3   115  MET115      0.0595
     69  SD        22.6870  -19.8860   67.8730 S.3   115  MET115     -0.1393
     70  CE        23.7880  -20.8050   66.9100 C.3   115  MET115      0.0692
     71  N         31.3330  -20.5320   64.2400 N.3   162  ASN162     -0.1240
     72  CA        30.0760  -19.7810   64.2670 C.3   162  ASN162      0.1653
     73  C         30.1080  -18.5420   65.1770 C.2   162  ASN162      0.2266
     74  O         29.0610  -18.0430   65.5780 O.2   162  ASN162     -0.2867
     75  CB        28.9070  -20.7060   64.6200 C.3   162  ASN162      0.1155
     76  CG        28.6580  -21.7530   63.5520 C.2   162  ASN162      0.2627
     77  OD1       28.4390  -21.4150   62.3920 O.2   162  ASN162     -0.2716
     78  ND2       28.7420  -23.0330   63.9270 N.am  162  ASN162     -0.0877
     79  N         32.6180  -23.1580   55.7730 N.3   211  TYR211     -0.1241
     80  CA        31.7200  -24.2880   55.6240 C.3   211  TYR211      0.1605
     81  C         30.5100  -23.8910   54.7810 C.2   211  TYR211      0.2264
     82  O         30.2400  -22.7140   54.5830 O.2   211  TYR211     -0.2867
     83  CB        31.3110  -24.8800   56.9810 C.3   211  TYR211      0.0534
     84  CG        30.2730  -24.1580   57.8330 C.ar  211  TYR211     -0.0201
     85  CD1       30.6040  -23.6480   59.0840 C.ar  211  TYR211     -0.0009
     86  CD2       28.9400  -24.0430   57.4220 C.ar  211  TYR211     -0.0009
     87  CE1       29.6470  -23.0280   59.8940 C.ar  211  TYR211      0.0417
     88  CE2       27.9860  -23.4290   58.2150 C.ar  211  TYR211      0.0417
     89  CZ        28.3280  -22.9320   59.4550 C.ar  211  TYR211      0.1957
     90  OH        27.3690  -22.3240   60.2360 O.3   211  TYR211     -0.2866
     91  N         16.7640  -26.9830   58.7420 N.3   222  TRP222     -0.1241
     92  CA        17.3290  -25.6480   58.9560 C.3   222  TRP222      0.1605
     93  C         17.3700  -24.7290   57.7320 C.2   222  TRP222      0.2264
     94  O         17.5750  -23.5370   57.8950 O.2   222  TRP222     -0.2867
     95  CB        18.7450  -25.7760   59.5240 C.3   222  TRP222      0.0550
     96  CG        18.8130  -26.7490   60.6490 C.ar  222  TRP222      0.0003
     97  CD1       18.3120  -26.5830   61.9130 C.ar  222  TRP222      0.0946
     98  CD2       19.3830  -28.0570   60.6120 C.ar  222  TRP222      0.0152
     99  NE1       18.5480  -27.7090   62.6640 N.ar  222  TRP222     -0.2442
    100  CE2       19.2040  -28.6310   61.8870 C.ar  222  TRP222      0.0810
    101  CE3       20.0360  -28.8070   59.6240 C.ar  222  TRP222      0.0012
    102  CZ2       19.6480  -29.9160   62.2010 C.ar  222  TRP222      0.0191
    103  CZ3       20.4810  -30.0820   59.9380 C.ar  222  TRP222      0.0001
    104  CH2       20.2880  -30.6210   61.2180 C.ar  222  TRP222      0.0015
    105  N         21.7540  -21.8470   56.8600 N.3   301  PHE301     -0.1241
    106  CA        21.2640  -22.2420   58.1810 C.3   301  PHE301      0.1605
    107  C         20.4520  -21.0730   58.7410 C.2   301  PHE301      0.2264
    108  O         21.0030  -20.0570   59.1470 O.2   301  PHE301     -0.2867
    109  CB        22.4150  -22.6020   59.1140 C.3   301  PHE301      0.0534
    110  CG        23.0800  -23.9160   58.7830 C.ar  301  PHE301     -0.0203
    111  CD1       24.0320  -23.9970   57.7650 C.ar  301  PHE301     -0.0042
    112  CD2       22.7540  -25.0690   59.4860 C.ar  301  PHE301     -0.0042
    113  CE1       24.6530  -25.2120   57.4570 C.ar  301  PHE301     -0.0003
    114  CE2       23.3760  -26.2880   59.1870 C.ar  301  PHE301     -0.0003
    115  CZ        24.3220  -26.3540   58.1700 C.ar  301  PHE301     -0.0000
    116  N         17.7280  -21.4820   65.8730 N.3   306  PHE306     -0.1241
    117  CA        18.9640  -20.7080   66.0140 C.3   306  PHE306      0.1605
    118  C         18.6750  -19.2340   66.3180 C.2   306  PHE306      0.2264
    119  O         19.2690  -18.6440   67.2270 O.2   306  PHE306     -0.2867
    120  CB        19.8060  -20.7720   64.7330 C.3   306  PHE306      0.0534
    121  CG        20.1750  -22.1650   64.3010 C.ar  306  PHE306     -0.0203
    122  CD1       19.9880  -22.5600   62.9800 C.ar  306  PHE306     -0.0042
    123  CD2       20.7270  -23.0750   65.2000 C.ar  306  PHE306     -0.0042
    124  CE1       20.3280  -23.8370   62.5710 C.ar  306  PHE306     -0.0003
    125  CE2       21.0700  -24.3550   64.7930 C.ar  306  PHE306     -0.0003
    126  CZ        20.8690  -24.7370   63.4770 C.ar  306  PHE306     -0.0000
    127  N         22.8790  -16.0010   69.3340 N.3   312  TYR312     -0.1228
    128  CA        22.7940  -16.1200   67.8810 C.3   312  TYR312      0.1721
    129  C         23.7760  -15.1450   67.2220 C.2   312  TYR312      0.2437
    130  O         23.7190  -13.9510   67.4970 O.2   312  TYR312     -0.2733
    131  CB        21.3650  -15.7890   67.4600 C.3   312  TYR312      0.0547
    132  CG        21.0420  -15.9190   65.9960 C.ar  312  TYR312     -0.0200
    133  CD1       21.2160  -17.1280   65.3290 C.ar  312  TYR312     -0.0009
    134  CD2       20.5060  -14.8460   65.2870 C.ar  312  TYR312     -0.0009
    135  CE1       20.8880  -17.2550   63.9880 C.ar  312  TYR312      0.0417
    136  CE2       20.1720  -14.9670   63.9500 C.ar  312  TYR312      0.0417
    137  CZ        20.3630  -16.1720   63.3110 C.ar  312  TYR312      0.1957
    138  OH        20.0370  -16.2910   61.9840 O.3   312  TYR312     -0.2866
    139  N         24.6900  -15.6460   66.3870 N.am  313  PRO313     -0.2718
    140  CA        25.7520  -14.8020   65.8190 C.3   313  PRO313      0.1535
    141  C         25.3190  -13.8120   64.7440 C.2   313  PRO313      0.2598
    142  O         26.0470  -12.8450   64.5380 O.2   313  PRO313     -0.2715
    143  CB        26.7360  -15.8160   65.2210 C.3   313  PRO313      0.0310
    144  CG        25.9170  -17.0220   64.9220 C.3   313  PRO313      0.0237
    145  CD        24.8190  -17.0510   65.9560 C.3   313  PRO313      0.0939
    146  N         24.1860  -14.0400   64.0770 N.am  314  TYR314     -0.1974
    147  CA        23.7930  -13.2030   62.9400 C.3   314  TYR314      0.1639
    148  C         22.8660  -12.0590   63.3550 C.2   314  TYR314      0.2290
    149  O         22.0420  -12.2070   64.2590 O.2   314  TYR314     -0.2864
    150  CB        23.1160  -14.0580   61.8510 C.3   314  TYR314      0.0560
    151  CG        23.9600  -15.2170   61.3370 C.ar  314  TYR314     -0.0198
    152  CD1       25.3060  -15.0530   61.0550 C.ar  314  TYR314     -0.0009
    153  CD2       23.4020  -16.4770   61.1310 C.ar  314  TYR314     -0.0009
    154  CE1       26.0810  -16.1050   60.5880 C.ar  314  TYR314      0.0417
    155  CE2       24.1730  -17.5450   60.6610 C.ar  314  TYR314      0.0417
    156  CZ        25.5140  -17.3420   60.3790 C.ar  314  TYR314      0.1957
    157  OH        26.2980  -18.3720   59.9090 O.3   314  TYR314     -0.2866
@<TRIPOS>BOND
     1    82    81    2
     2    81    80    1
     3    80    79    1
     4    80    83    1
     5     4     3    2
     6   105   106    1
     7     3     2    1
     8    83    84    1
     9    86    84   ar
    10    86    88   ar
    11   113   111   ar
    12   113   115   ar
    13     1     2    1
    14    93    94    2
    15    93    92    1
    16   111   110   ar
    17    84    85   ar
    18     2     5    1
    19     8    10   ar
    20     8     6   ar
    21   115   114   ar
    22   106   107    1
    23   106   109    1
    24    88    89   ar
    25     5     6    1
    26    10    11   ar
    27   107   108    2
    28    91    92    1
    29   110   109    1
    30   110   112   ar
    31    92    95    1
    32     6     7   ar
    33    85    87   ar
    34   114   112   ar
    35    89    87   ar
    36    89    90    1
    37    95    96    1
    38   101   103   ar
    39   101    98   ar
    40    11    12    1
    41    11     9   ar
    42   157   156    1
    43   103   104   ar
    44     7     9   ar
    45   156   154   ar
    46   156   155   ar
    47   154   152   ar
    48    98    96   ar
    49    98   100   ar
    50    96    97   ar
    51   155   153   ar
    52   152   151   ar
    53   153   151   ar
    54   104   102   ar
    55   151   150    1
    56    29    27   ar
    57    29    31   ar
    58    32    31    1
    59    27    26   ar
    60    31    30   ar
    61   150   147    1
    62   100   102   ar
    63   100    99   ar
    64    97    99   ar
    65   138   137    1
    66    26    25    1
    67    26    28   ar
    68    30    28   ar
    69    77    76    2
    70   124   122   ar
    71   124   126   ar
    72    25    22    1
    73    24    23    2
    74   147   148    1
    75   147   146    1
    76   122   121   ar
    77   137   136   ar
    78   137   135   ar
    79   148   149    2
    80   126   125   ar
    81    22    23    1
    82    22    21    1
    83    76    78   am
    84    76    75    1
    85   136   134   ar
    86   135   133   ar
    87   146   141   am
    88    71    72    1
    89    72    75    1
    90    72    73    1
    91   121   120    1
    92   121   123   ar
    93    56    55   ar
    94    56    54   ar
    95   142   141    2
    96   120   117    1
    97   141   140    1
    98    21    15   am
    99   125   123   ar
   100   144   143    1
   101   144   145    1
   102    20    18    1
   103    55    53   ar
   104    73    74    2
   105   143   140    1
   106   134   132   ar
   107   133   132   ar
   108    16    15    2
   109    54    52   ar
   110    15    14    1
   111    18    17    1
   112    18    19    1
   113   140   139    1
   114   116   117    1
   115   145   139    1
   116   132   131    1
   117   117   118    1
   118    50    49    2
   119    17    14    1
   120   118   119    2
   121    53    52   ar
   122   139   129   am
   123    52    51    1
   124    14    13    1
   125    70    69    1
   126   129   130    2
   127   129   128    1
   128    49    48    1
   129    49    57   am
   130   131   128    1
   131    48    51    1
   132    48    47    1
   133    69    68    1
   134   128   127    1
   135    45    46   ar
   136    45    43   ar
   137    61    58    1
   138    61    62    1
   139    46    44   ar
   140    58    57    1
   141    58    59    1
   142    43    40   ar
   143    44    42   ar
   144    68    67    1
   145    59    60    2
   146    40    42   ar
   147    40    38   ar
   148    42    41   ar
   149    67    64    1
   150    38    37    1
   151    38    39   ar
   152    63    64    1
   153    41    39   ar
   154    37    34    1
   155    34    33    1
   156    34    35    1
   157    64    65    1
   158    66    65    2
   159    35    36    2
