@<TRIPOS>MOLECULE
tmp/1s2gB00.pdb
 115 112 0 0 0
SMALL
GASTEIGER

@<TRIPOS>ATOM
      1  N         -2.1390   15.5720   -7.6790 N.3    11  TYR11      -0.1241
      2  CA        -1.6170   15.9700   -6.3860 C.3    11  TYR11       0.1605
      3  C         -0.3820   16.7410   -6.8430 C.2    11  TYR11       0.2264
      4  O          0.6060   16.1520   -7.3030 O.2    11  TYR11      -0.2867
      5  CB        -1.1850   14.7790   -5.5230 C.3    11  TYR11       0.0534
      6  CG        -0.6080   15.2300   -4.1940 C.ar   11  TYR11      -0.0201
      7  CD1       -1.4400   15.7120   -3.1770 C.ar   11  TYR11      -0.0009
      8  CD2        0.7720   15.2510   -3.9800 C.ar   11  TYR11      -0.0009
      9  CE1       -0.9120   16.2070   -1.9790 C.ar   11  TYR11       0.0417
     10  CE2        1.3110   15.7440   -2.7930 C.ar   11  TYR11       0.0417
     11  CZ         0.4600   16.2210   -1.7930 C.ar   11  TYR11       0.1957
     12  OH         0.9770   16.7160   -0.6150 O.3    11  TYR11      -0.2866
     13  N          2.6430   18.3050   -5.9470 N.3    13  GLY13      -0.1210
     14  CA         3.6010   18.4240   -4.8600 C.3    13  GLY13       0.1956
     15  C          4.6720   19.4500   -5.1730 C.2    13  GLY13       0.2613
     16  O          5.0920   19.5750   -6.3250 O.2    13  GLY13      -0.2717
     17  N          5.1360   20.1720   -4.1600 N.am   14  SER14      -0.1938
     18  CA         6.1460   21.1880   -4.4020 C.3    14  SER14       0.2040
     19  C          6.6530   21.9110   -3.1690 C.2    14  SER14       0.2485
     20  O          5.9100   22.1130   -2.2040 O.2    14  SER14      -0.2729
     21  CB         5.5890   22.2430   -5.3720 C.3    14  SER14       0.2129
     22  OG         6.4150   23.3940   -5.4160 O.3    14  SER14      -0.2179
     23  N          7.9400   22.2970   -3.1760 N.am   15  PRO15      -0.2726
     24  CA         8.4970   23.0260   -2.0330 C.3    15  PRO15       0.1402
     25  C          7.7210   24.3410   -2.1480 C.2    15  PRO15       0.2269
     26  O          7.0530   24.5630   -3.1580 O.2    15  PRO15      -0.2865
     27  CB         9.9680   23.2110   -2.4060 C.3    15  PRO15       0.0296
     28  CG        10.2270   22.1720   -3.4450 C.3    15  PRO15       0.0237
     29  CD         8.9500   22.0880   -4.2210 C.3    15  PRO15       0.0939
     30  N          8.8130   27.5870   -0.0780 N.3    17  TYR17      -0.1241
     31  CA         9.4320   28.5470    0.8210 C.3    17  TYR17       0.1605
     32  C         10.1770   29.6390   -0.0410 C.2    17  TYR17       0.2264
     33  O         10.1300   30.8100    0.3440 O.2    17  TYR17      -0.2867
     34  CB        10.3230   27.8650    1.8900 C.3    17  TYR17       0.0534
     35  CG         9.7600   26.4980    2.0860 C.ar   17  TYR17      -0.0201
     36  CD1        8.6770   26.2620    2.9460 C.ar   17  TYR17      -0.0009
     37  CD2       10.2600   25.4250    1.3810 C.ar   17  TYR17      -0.0009
     38  CE1        8.0920   24.9890    3.0870 C.ar   17  TYR17       0.0417
     39  CE2        9.6870   24.1500    1.4820 C.ar   17  TYR17       0.0417
     40  CZ         8.6010   23.9450    2.3330 C.ar   17  TYR17       0.1957
     41  OH         8.0300   22.7030    2.4100 O.3    17  TYR17      -0.2866
     42  N         -1.1520   21.3720   -1.6900 N.3    44  PRO44      -0.2102
     43  CA        -1.0320   21.3610   -0.2270 C.3    44  PRO44       0.1504
     44  C         -0.9870   22.7030    0.4910 C.2    44  PRO44       0.2575
     45  O         -1.4840   22.8250    1.6120 O.2    44  PRO44      -0.2718
     46  CB         0.2350   20.5310    0.0140 C.3    44  PRO44       0.0282
     47  CG         1.0080   20.6730   -1.2600 C.3    44  PRO44       0.0208
     48  CD        -0.0800   20.5630   -2.2950 C.3    44  PRO44       0.0893
     49  N         -0.4140   23.7130   -0.1520 N.am   45  PHE45      -0.1977
     50  CA        -0.2980   25.0190    0.4840 C.3    45  PHE45       0.1639
     51  C         -1.4460   25.9920    0.2260 C.2    45  PHE45       0.2290
     52  O         -1.4140   27.1240    0.7000 O.2    45  PHE45      -0.2864
     53  CB         1.0340   25.6490    0.0860 C.3    45  PHE45       0.0560
     54  CG         2.2310   24.8360    0.5090 C.ar   45  PHE45      -0.0200
     55  CD1        2.6930   24.8810    1.8200 C.ar   45  PHE45      -0.0042
     56  CD2        2.8780   24.0060   -0.4010 C.ar   45  PHE45      -0.0042
     57  CE1        3.7890   24.1100    2.2210 C.ar   45  PHE45      -0.0003
     58  CE2        3.9720   23.2310   -0.0090 C.ar   45  PHE45      -0.0003
     59  CZ         4.4270   23.2850    1.3040 C.ar   45  PHE45      -0.0000
     60  N         -2.1950   20.5610   14.8820 N.3    67  TRP67      -0.1241
     61  CA        -1.9780   21.2010   13.5820 C.3    67  TRP67       0.1605
     62  C         -1.1440   20.2900   12.6790 C.2    67  TRP67       0.2264
     63  O         -1.4420   20.1240   11.4950 O.2    67  TRP67      -0.2867
     64  CB        -1.2420   22.5360   13.7340 C.3    67  TRP67       0.0550
     65  CG        -1.0060   23.2070   12.4090 C.ar   67  TRP67       0.0003
     66  CD1       -1.8660   24.0320   11.7410 C.ar   67  TRP67       0.0946
     67  CD2        0.1420   23.0530   11.5600 C.ar   67  TRP67       0.0152
     68  NE1       -1.3280   24.4000   10.5320 N.ar   67  TRP67      -0.2442
     69  CE2       -0.0970   23.8110   10.3930 C.ar   67  TRP67       0.0810
     70  CE3        1.3470   22.3410   11.6710 C.ar   67  TRP67       0.0012
     71  CZ2        0.8260   23.8790    9.3400 C.ar   67  TRP67       0.0191
     72  CZ3        2.2640   22.4080   10.6240 C.ar   67  TRP67       0.0001
     73  CH2        1.9960   23.1730    9.4740 C.ar   67  TRP67       0.0015
     74  N         -2.5830   18.8570    9.1910 N.3    71  THR71      -0.1218
     75  CA        -1.9260   19.2830    7.9590 C.3    71  THR71       0.1862
     76  C         -1.3150   18.1190    7.1850 C.2    71  THR71       0.2287
     77  O         -1.4740   18.0240    5.9730 O.2    71  THR71      -0.2866
     78  CB        -0.8420   20.3210    8.2710 C.3    71  THR71       0.1770
     79  OG1       -1.4300   21.3770    9.0410 O.3    71  THR71      -0.2211
     80  CG2       -0.2500   20.9010    6.9800 C.3    71  THR71       0.0375
     81  N         -2.4520   16.3290    3.3710 N.3    75  ASP75      -0.1239
     82  CA        -1.6000   15.9740    2.2430 C.3    75  ASP75       0.1674
     83  C         -1.7840   14.5070    1.8550 C.2    75  ASP75       0.2266
     84  O         -1.8900   14.1870    0.6750 O.2    75  ASP75      -0.2867
     85  CB        -0.1340   16.2720    2.5660 C.3    75  ASP75       0.1410
     86  CG         0.1560   17.7690    2.6140 C.2    75  ASP75       0.3668
     87  OD1       -0.7690   18.5670    2.3480 O.co2  75  ASP75      -0.2456
     88  OD2        1.3040   18.1480    2.9140 O.co2  75  ASP75      -0.2456
     89  N         14.0220   18.7680   -1.8440 N.3    95  ASP95      -0.1239
     90  CA        12.9760   18.8480   -0.8400 C.3    95  ASP95       0.1674
     91  C         12.5860   17.4490   -0.3750 C.2    95  ASP95       0.2266
     92  O         12.0270   16.6710   -1.1450 O.2    95  ASP95      -0.2867
     93  CB        11.7680   19.5730   -1.4280 C.3    95  ASP95       0.1410
     94  CG        10.6050   19.6150   -0.4780 C.2    95  ASP95       0.3668
     95  OD1       10.8400   19.8990    0.7150 O.co2  95  ASP95      -0.2456
     96  OD2        9.4640   19.3720   -0.9310 O.co2  95  ASP95      -0.2456
     97  N         10.2660   16.6190    1.6830 N.3    97  GLY97      -0.1210
     98  CA         8.8270   16.4630    1.8160 C.3    97  GLY97       0.1956
     99  C          8.2600   15.9250    0.5110 C.2    97  GLY97       0.2612
    100  O          7.4370   15.0020    0.5080 O.2    97  GLY97      -0.2717
    101  N          8.7040   16.5070   -0.6030 N.am   98  SER98      -0.1952
    102  CA         8.2630   16.0820   -1.9300 C.3    98  SER98       0.1924
    103  C          8.7550   14.6660   -2.2090 C.2    98  SER98       0.2314
    104  O          8.0190   13.8480   -2.7500 O.2    98  SER98      -0.2863
    105  CB         8.8030   17.0260   -3.0220 C.3    98  SER98       0.2116
    106  OG         8.1970   18.3090   -2.9660 O.3    98  SER98      -0.2180
    107  N          6.7510   12.2430   -0.4340 N.3   101  GLU101     -0.1245
    108  CA         5.4750   12.0950   -1.1140 C.3   101  GLU101      0.1567
    109  C          5.5670   11.2580   -2.3750 C.2   101  GLU101      0.2260
    110  O          4.6700   10.4710   -2.6590 O.2   101  GLU101     -0.2867
    111  CB         4.8910   13.4660   -1.4220 C.3   101  GLU101      0.0388
    112  CG         4.6400   14.2610   -0.1640 C.3   101  GLU101      0.1160
    113  CD         4.0270   15.6110   -0.4360 C.2   101  GLU101      0.3649
    114  OE1        4.5180   16.3110   -1.3440 O.co2 101  GLU101     -0.2457
    115  OE2        3.0610   15.9690    0.2680 O.co2 101  GLU101     -0.2457
@<TRIPOS>BOND
     1     1     2    1
     2     4     3    2
     3     3     2    1
     4     2     5    1
     5    16    15    2
     6    13    14    1
     7     5     6    1
     8    22    21    1
     9    21    18    1
    10    15    14    1
    11    15    17   am
    12    18    17    1
    13    18    19    1
    14    29    28    1
    15    29    23    1
    16     6     8   ar
    17     6     7   ar
    18     8    10   ar
    19    28    27    1
    20     7     9   ar
    21    23    19   am
    22    23    24    1
    23    19    20    2
    24    26    25    2
    25   105   106    1
    26   105   102    1
    27    10    11   ar
    28   104   103    2
    29   110   109    2
    30    27    24    1
    31   109   108    1
    32    48    42    1
    33    48    47    1
    34   103   102    1
    35    25    24    1
    36     9    11   ar
    37   102   101    1
    38    89    90    1
    39    11    12    1
    40    42    43    1
    41    93    90    1
    42    93    94    1
    43   111   108    1
    44   111   112    1
    45   114   113   ar
    46    47    46    1
    47    92    91    2
    48   108   107    1
    49    96    94   ar
    50    90    91    1
    51   101    99   am
    52    94    95   ar
    53   113   112    1
    54   113   115   ar
    55    56    58   ar
    56    56    54   ar
    57    43    46    1
    58    43    44    1
    59    49    50    1
    60    49    44   am
    61    30    31    1
    62    32    33    2
    63    32    31    1
    64    58    59   ar
    65    53    50    1
    66    53    54    1
    67    51    50    1
    68    51    52    2
    69    44    45    2
    70   100    99    2
    71    54    55   ar
    72    99    98    1
    73    84    83    2
    74    31    34    1
    75    59    57   ar
    76    37    39   ar
    77    37    35   ar
    78    39    40   ar
    79    97    98    1
    80    55    57   ar
    81    83    82    1
    82    34    35    1
    83    35    36   ar
    84    82    85    1
    85    82    81    1
    86    40    41    1
    87    40    38   ar
    88    87    86   ar
    89    85    86    1
    90    86    88   ar
    91    36    38   ar
    92    77    76    2
    93    80    78    1
    94    76    75    1
    95    75    78    1
    96    75    74    1
    97    78    79    1
    98    71    73   ar
    99    71    69   ar
   100    73    72   ar
   101    69    68   ar
   102    69    67   ar
   103    68    66   ar
   104    72    70   ar
   105    63    62    2
   106    67    70   ar
   107    67    65   ar
   108    66    65   ar
   109    65    64    1
   110    62    61    1
   111    61    64    1
   112    61    60    1
