@<TRIPOS>MOLECULE
tmp/1s2kA01.pdb
 93 88 0 0 0
SMALL
GASTEIGER

@<TRIPOS>ATOM
      1  N         65.5100   39.7410   26.2570 N.3     4  SER4       -0.1202
      2  CA        66.5780   38.8730   25.7810 C.3     4  SER4        0.2020
      3  C         66.7760   39.2570   24.3260 C.2     4  SER4        0.2619
      4  O         65.8450   39.1570   23.5330 O.2     4  SER4       -0.2717
      5  CB        66.1600   37.4000   25.8830 C.3     4  SER4        0.2103
      6  OG        67.1540   36.5490   25.3340 O.3     4  SER4       -0.2182
      7  N         67.9790   39.6980   23.9670 N.am    5  ASN5       -0.1960
      8  CA        68.2070   40.1220   22.5940 C.3     5  ASN5        0.1819
      9  C         68.9030   39.1010   21.6990 C.2     5  ASN5        0.2621
     10  O         69.0930   39.3560   20.5090 O.2     5  ASN5       -0.2715
     11  CB        68.9810   41.4450   22.5830 C.3     5  ASN5        0.1195
     12  CG        70.4340   41.2730   22.9640 C.2     5  ASN5        0.2630
     13  OD1       70.7550   40.7160   24.0130 O.2     5  ASN5       -0.2716
     14  ND2       71.3240   41.7560   22.1070 N.am    5  ASN5       -0.0877
     15  N         69.2700   37.9510   22.2650 N.am    6  TRP6       -0.1974
     16  CA        69.9300   36.8840   21.5110 C.3     6  TRP6        0.1640
     17  C         69.0720   35.6240   21.4000 C.2     6  TRP6        0.2290
     18  O         68.4970   35.1570   22.3880 O.2     6  TRP6       -0.2864
     19  CB        71.2400   36.4670   22.1880 C.3     6  TRP6        0.0576
     20  CG        72.4370   37.3250   21.9400 C.ar    6  TRP6        0.0006
     21  CD1       72.4560   38.6450   21.5810 C.ar    6  TRP6        0.0946
     22  CD2       73.8040   36.9410   22.1380 C.ar    6  TRP6        0.0152
     23  NE1       73.7570   39.1070   21.5520 N.ar    6  TRP6       -0.2442
     24  CE2       74.6010   38.0810   21.8910 C.ar    6  TRP6        0.0810
     25  CE3       74.4320   35.7440   22.5070 C.ar    6  TRP6        0.0012
     26  CZ2       76.0000   38.0590   22.0030 C.ar    6  TRP6        0.0191
     27  CZ3       75.8280   35.7220   22.6190 C.ar    6  TRP6        0.0001
     28  CH2       76.5890   36.8750   22.3670 C.ar    6  TRP6        0.0015
     29  N         74.5830   28.5010   21.7760 N.3    10  ILE10      -0.1245
     30  CA        75.8490   28.9310   22.3520 C.3    10  ILE10       0.1561
     31  C         76.5840   27.7470   22.9720 C.2    10  ILE10       0.2260
     32  O         76.0530   27.0700   23.8550 O.2    10  ILE10      -0.2867
     33  CB        75.6300   29.9580   23.4660 C.3    10  ILE10       0.0252
     34  CG1       74.7970   31.1280   22.9470 C.3    10  ILE10       0.0019
     35  CG2       76.9720   30.4300   24.0050 C.3    10  ILE10       0.0019
     36  CD1       74.3780   32.0900   24.0360 C.3    10  ILE10       0.0001
     37  N         81.8110   36.5360   23.8660 N.3    44  GLY44      -0.1210
     38  CA        80.7220   37.4820   24.0280 C.3    44  GLY44       0.1956
     39  C         79.7100   37.0660   25.0870 C.2    44  GLY44       0.2611
     40  O         78.9360   37.8960   25.5610 O.2    44  GLY44      -0.2717
     41  N         79.7040   35.7870   25.4560 N.am   45  ASP45      -0.1973
     42  CA        78.7740   35.2880   26.4710 C.3    45  ASP45       0.1709
     43  C         79.4170   35.3310   27.8620 C.2    45  ASP45       0.2293
     44  O         79.2390   36.3050   28.5950 O.2    45  ASP45      -0.2864
     45  CB        78.3390   33.8580   26.1460 C.3    45  ASP45       0.1436
     46  CG        77.2400   33.3630   27.0680 C.2    45  ASP45       0.3671
     47  OD1       76.9680   32.1490   27.0770 O.co2  45  ASP45      -0.2456
     48  OD2       76.6450   34.1940   27.7820 O.co2  45  ASP45      -0.2456
     49  N         83.2760   38.2510   28.2680 N.3    48  GLN48      -0.1245
     50  CA        82.7600   39.5590   27.8890 C.3    48  GLN48       0.1566
     51  C         83.8180   40.6200   27.6000 C.2    48  GLN48       0.2260
     52  O         83.5110   41.8110   27.5620 O.2    48  GLN48      -0.2867
     53  CB        81.8180   40.0510   28.9850 C.3    48  GLN48       0.0367
     54  CG        81.0290   38.9180   29.6310 C.3    48  GLN48       0.0905
     55  CD        80.0120   39.4020   30.6420 C.2    48  GLN48       0.2608
     56  OE1       80.2870   40.3050   31.4360 O.2    48  GLN48      -0.2717
     57  NE2       78.8310   38.7920   30.6290 N.am   48  GLN48      -0.0878
     58  N         69.8010   38.0520   16.3200 N.3   129  GLU129     -0.1245
     59  CA        69.7580   39.0950   17.3290 C.3   129  GLU129      0.1567
     60  C         68.9400   40.3360   17.0120 C.2   129  GLU129      0.2260
     61  O         68.7870   40.7210   15.8550 O.2   129  GLU129     -0.2867
     62  CB        71.2000   39.5270   17.6390 C.3   129  GLU129      0.0388
     63  CG        71.3430   40.7310   18.5720 C.3   129  GLU129      0.1160
     64  CD        72.7940   41.1760   18.7390 C.2   129  GLU129      0.3649
     65  OE1       73.0490   42.1170   19.5220 O.co2 129  GLU129     -0.2457
     66  OE2       73.6760   40.5930   18.0800 O.co2 129  GLU129     -0.2457
     67  N         71.4400   46.5990   18.6430 N.3   132  GLU132     -0.1245
     68  CA        71.2870   47.9590   19.1370 C.3   132  GLU132      0.1567
     69  C         71.8800   49.0050   18.2100 C.2   132  GLU132      0.2260
     70  O         72.8180   48.7340   17.4620 O.2   132  GLU132     -0.2867
     71  CB        71.9630   48.1080   20.5020 C.3   132  GLU132      0.0388
     72  CG        71.3130   47.3460   21.6370 C.3   132  GLU132      0.1160
     73  CD        72.0440   47.5530   22.9550 C.2   132  GLU132      0.3649
     74  OE1       73.2080   47.1110   23.0640 O.co2 132  GLU132     -0.2457
     75  OE2       71.4580   48.1630   23.8750 O.co2 132  GLU132     -0.2457
     76  N         67.5750   49.2410   21.3460 N.3   143  PHE143     -0.1241
     77  CA        67.3920   48.0640   20.5150 C.3   143  PHE143      0.1605
     78  C         66.5280   48.4810   19.3350 C.2   143  PHE143      0.2264
     79  O         65.5530   49.2160   19.4990 O.2   143  PHE143     -0.2867
     80  CB        66.6770   46.9480   21.2860 C.3   143  PHE143      0.0534
     81  CG        67.4910   46.3570   22.3970 C.ar  143  PHE143     -0.0203
     82  CD1       67.2350   46.6950   23.7240 C.ar  143  PHE143     -0.0042
     83  CD2       68.5200   45.4690   22.1180 C.ar  143  PHE143     -0.0042
     84  CE1       67.9980   46.1520   24.7560 C.ar  143  PHE143     -0.0003
     85  CE2       69.2870   44.9220   23.1420 C.ar  143  PHE143     -0.0003
     86  CZ        69.0270   45.2640   24.4610 C.ar  143  PHE143     -0.0000
     87  N         68.9600   29.8600   23.4370 N.3   175  THR175     -0.1218
     88  CA        68.3790   31.1070   23.9100 C.3   175  THR175      0.1862
     89  C         67.3760   31.5860   22.8600 C.2   175  THR175      0.2287
     90  O         67.4250   31.1540   21.7050 O.2   175  THR175     -0.2866
     91  CB        69.4790   32.1830   24.1420 C.3   175  THR175      0.1770
     92  OG1       68.8780   33.3990   24.6130 O.3   175  THR175     -0.2211
     93  CG2       70.2550   32.4570   22.8460 C.3   175  THR175      0.0375
@<TRIPOS>BOND
     1    61    60    2
     2    58    59    1
     3    60    59    1
     4    59    62    1
     5    70    69    2
     6    62    63    1
     7    66    64   ar
     8    69    68    1
     9    63    64    1
    10    67    68    1
    11    64    65   ar
    12    68    71    1
    13    78    79    2
    14    78    77    1
    15    71    72    1
    16    10     9    2
    17    77    80    1
    18    77    76    1
    19    80    81    1
    20    17    16    1
    21    17    18    2
    22    16    19    1
    23    16    15    1
    24    23    21   ar
    25    23    24   ar
    26    21    20   ar
    27    72    73    1
    28     9    15   am
    29     9     8    1
    30    90    89    2
    31    29    30    1
    32    24    26   ar
    33    24    22   ar
    34    20    22   ar
    35    20    19    1
    36    26    28   ar
    37    14    12   am
    38    83    81   ar
    39    83    85   ar
    40    22    25   ar
    41    30    31    1
    42    30    33    1
    43    28    27   ar
    44    81    82   ar
    45    25    27   ar
    46    11     8    1
    47    11    12    1
    48     8     7    1
    49    93    91    1
    50    89    88    1
    51    34    33    1
    52    34    36    1
    53    73    74   ar
    54    73    75   ar
    55    12    13    2
    56    31    32    2
    57    85    86   ar
    58    87    88    1
    59    33    35    1
    60     4     3    2
    61    82    84   ar
    62    37    38    1
    63    88    91    1
    64     7     3   am
    65    38    39    1
    66    91    92    1
    67     3     2    1
    68    86    84   ar
    69    39    41   am
    70    39    40    2
    71     6     5    1
    72    41    42    1
    73     2     5    1
    74     2     1    1
    75    45    42    1
    76    45    46    1
    77    42    43    1
    78    46    47   ar
    79    46    48   ar
    80    52    51    2
    81    51    50    1
    82    43    44    2
    83    50    49    1
    84    50    53    1
    85    53    54    1
    86    54    55    1
    87    57    55   am
    88    55    56    2
