@<TRIPOS>MOLECULE
tmp/1s2kA00.pdb
 152 148 0 0 0
SMALL
GASTEIGER

@<TRIPOS>ATOM
      1  N         69.2700   37.9510   22.2650 N.3     6  TRP6       -0.1241
      2  CA        69.9300   36.8840   21.5110 C.3     6  TRP6        0.1605
      3  C         69.0720   35.6240   21.4000 C.2     6  TRP6        0.2264
      4  O         68.4970   35.1570   22.3880 O.2     6  TRP6       -0.2867
      5  CB        71.2400   36.4670   22.1880 C.3     6  TRP6        0.0550
      6  CG        72.4370   37.3250   21.9400 C.ar    6  TRP6        0.0003
      7  CD1       72.4560   38.6450   21.5810 C.ar    6  TRP6        0.0946
      8  CD2       73.8040   36.9410   22.1380 C.ar    6  TRP6        0.0152
      9  NE1       73.7570   39.1070   21.5520 N.ar    6  TRP6       -0.2442
     10  CE2       74.6010   38.0810   21.8910 C.ar    6  TRP6        0.0810
     11  CE3       74.4320   35.7440   22.5070 C.ar    6  TRP6        0.0012
     12  CZ2       76.0000   38.0590   22.0030 C.ar    6  TRP6        0.0191
     13  CZ3       75.8280   35.7220   22.6190 C.ar    6  TRP6        0.0001
     14  CH2       76.5890   36.8750   22.3670 C.ar    6  TRP6        0.0015
     15  N         69.3620   40.4750   12.7250 N.3    37  THR37      -0.1218
     16  CA        70.6690   40.0630   12.2400 C.3    37  THR37       0.1862
     17  C         70.9280   38.5970   12.5560 C.2    37  THR37       0.2287
     18  O         70.3940   38.0480   13.5310 O.2    37  THR37      -0.2866
     19  CB        71.8000   40.9260   12.8730 C.3    37  THR37       0.1770
     20  OG1       73.0670   40.5380   12.3180 O.3    37  THR37      -0.2211
     21  CG2       71.8340   40.7460   14.4030 C.3    37  THR37       0.0375
     22  N         74.3290   36.0090   12.7310 N.3    39  TRP39      -0.1241
     23  CA        75.7830   35.9980   12.7040 C.3    39  TRP39       0.1605
     24  C         76.3680   34.8090   13.4440 C.2    39  TRP39       0.2264
     25  O         75.6750   34.1410   14.2230 O.2    39  TRP39      -0.2867
     26  CB        76.3430   37.2980   13.3080 C.3    39  TRP39       0.0550
     27  CG        75.8290   37.6680   14.6830 C.ar   39  TRP39       0.0003
     28  CD1       74.7410   38.4500   14.9740 C.ar   39  TRP39       0.0946
     29  CD2       76.4000   37.2940   15.9480 C.ar   39  TRP39       0.0152
     30  NE1       74.6050   38.5860   16.3380 N.ar   39  TRP39      -0.2442
     31  CE2       75.6090   37.8880   16.9560 C.ar   39  TRP39       0.0810
     32  CE3       77.5050   36.5140   16.3250 C.ar   39  TRP39       0.0012
     33  CZ2       75.8860   37.7280   18.3190 C.ar   39  TRP39       0.0191
     34  CZ3       77.7790   36.3540   17.6810 C.ar   39  TRP39       0.0001
     35  CH2       76.9690   36.9610   18.6620 C.ar   39  TRP39       0.0015
     36  N         84.6560   40.0420   21.3350 N.3    51  ILE51      -0.1245
     37  CA        83.7670   39.2100   20.5440 C.3    51  ILE51       0.1561
     38  C         84.1670   39.3140   19.0700 C.2    51  ILE51       0.2260
     39  O         84.2750   40.4110   18.5260 O.2    51  ILE51      -0.2867
     40  CB        82.2880   39.6540   20.7650 C.3    51  ILE51       0.0252
     41  CG1       81.3180   38.5670   20.2880 C.3    51  ILE51       0.0019
     42  CG2       82.0320   40.9880   20.0880 C.3    51  ILE51       0.0019
     43  CD1       81.4330   38.1960   18.8400 C.3    51  ILE51       0.0001
     44  N         82.9450   38.4380   15.4850 N.3    53  GLN53      -0.1245
     45  CA        81.7060   38.0540   14.8230 C.3    53  GLN53       0.1566
     46  C         81.5350   38.6230   13.4240 C.2    53  GLN53       0.2260
     47  O         82.1250   39.6500   13.0720 O.2    53  GLN53      -0.2867
     48  CB        80.5370   38.5300   15.6790 C.3    53  GLN53       0.0367
     49  CG        80.6930   39.9970   16.0610 C.3    53  GLN53       0.0905
     50  CD        79.5470   40.5480   16.8800 C.2    53  GLN53       0.2608
     51  OE1       79.5770   41.7070   17.2900 O.2    53  GLN53      -0.2717
     52  NE2       78.5250   39.7250   17.1210 N.am   53  GLN53      -0.0878
     53  N         72.4930   41.8600    8.2370 N.3    57  ASP57      -0.1239
     54  CA        71.2560   42.3950    8.8050 C.3    57  ASP57       0.1674
     55  C         70.1930   42.5080    7.7250 C.2    57  ASP57       0.2266
     56  O         70.5040   42.6500    6.5400 O.2    57  ASP57      -0.2867
     57  CB        71.4440   43.8030    9.3750 C.3    57  ASP57       0.1410
     58  CG        72.6740   43.9380   10.2300 C.2    57  ASP57       0.3668
     59  OD1       72.9490   43.0270   11.0350 O.co2  57  ASP57      -0.2456
     60  OD2       73.3590   44.9760   10.1040 O.co2  57  ASP57      -0.2456
     61  N         66.3530   44.5370    6.9980 N.3    59  TYR59      -0.1241
     62  CA        65.5050   45.6190    7.4700 C.3    59  TYR59       0.1605
     63  C         64.1000   45.4530    6.9160 C.2    59  TYR59       0.2264
     64  O         63.9120   44.8740    5.8470 O.2    59  TYR59      -0.2867
     65  CB        66.0750   46.9770    7.0650 C.3    59  TYR59       0.0534
     66  CG        67.3280   47.3440    7.8280 C.ar   59  TYR59      -0.0201
     67  CD1       68.5730   46.8530    7.4420 C.ar   59  TYR59      -0.0009
     68  CD2       67.2620   48.1630    8.9570 C.ar   59  TYR59      -0.0009
     69  CE1       69.7270   47.1700    8.1640 C.ar   59  TYR59       0.0417
     70  CE2       68.4050   48.4830    9.6840 C.ar   59  TYR59       0.0417
     71  CZ        69.6320   47.9840    9.2800 C.ar   59  TYR59       0.1957
     72  OH        70.7660   48.3080    9.9860 O.3    59  TYR59      -0.2866
     73  N         78.3930   42.7640    7.6440 N.3    67  TRP67      -0.1241
     74  CA        79.3720   43.3700    8.5280 C.3    67  TRP67       0.1605
     75  C         80.2500   42.3450    9.2260 C.2    67  TRP67       0.2264
     76  O         80.0000   41.1380    9.1690 O.2    67  TRP67      -0.2867
     77  CB        78.6510   44.1890    9.5990 C.3    67  TRP67       0.0550
     78  CG        77.6000   43.3790   10.3230 C.ar   67  TRP67       0.0003
     79  CD1       76.2800   43.2580    9.9860 C.ar   67  TRP67       0.0946
     80  CD2       77.8110   42.4980   11.4400 C.ar   67  TRP67       0.0152
     81  NE1       75.6560   42.3520   10.8200 N.ar   67  TRP67      -0.2442
     82  CE2       76.5720   41.8720   11.7200 C.ar   67  TRP67       0.0810
     83  CE3       78.9260   42.1750   12.2280 C.ar   67  TRP67       0.0012
     84  CZ2       76.4180   40.9410   12.7550 C.ar   67  TRP67       0.0191
     85  CZ3       78.7720   41.2450   13.2600 C.ar   67  TRP67       0.0001
     86  CH2       77.5250   40.6410   13.5110 C.ar   67  TRP67       0.0015
     87  N         83.0490   42.3280   12.9180 N.3    69  GLU69      -0.1245
     88  CA        83.3650   43.1260   14.0890 C.3    69  GLU69       0.1567
     89  C         84.1680   42.3840   15.1440 C.2    69  GLU69       0.2260
     90  O         83.9810   41.1870   15.3710 O.2    69  GLU69      -0.2867
     91  CB        82.0610   43.6680   14.6930 C.3    69  GLU69       0.0388
     92  CG        82.1720   44.2540   16.0890 C.3    69  GLU69       0.1160
     93  CD        80.8860   44.9340   16.5260 C.2    69  GLU69       0.3649
     94  OE1       79.7950   44.4790   16.1140 O.co2  69  GLU69      -0.2457
     95  OE2       80.9610   45.9180   17.2900 O.co2  69  GLU69      -0.2457
     96  N         80.9230   47.8780    8.2870 N.3    72  VAL72      -0.1245
     97  CA        79.9180   47.2630    7.4340 C.3    72  VAL72       0.1561
     98  C         80.4830   46.8790    6.0700 C.2    72  VAL72       0.2260
     99  O         81.6890   46.6660    5.9170 O.2    72  VAL72      -0.2867
    100  CB        78.7310   48.2090    7.2650 C.3    72  VAL72       0.0252
    101  CG1       77.9660   48.3610    8.5660 C.3    72  VAL72       0.0019
    102  CG2       79.1860   49.5580    6.7060 C.3    72  VAL72       0.0019
    103  N         69.8010   38.0520   16.3200 N.3   129  GLU129     -0.1245
    104  CA        69.7580   39.0950   17.3290 C.3   129  GLU129      0.1567
    105  C         68.9400   40.3360   17.0120 C.2   129  GLU129      0.2260
    106  O         68.7870   40.7210   15.8550 O.2   129  GLU129     -0.2867
    107  CB        71.2000   39.5270   17.6390 C.3   129  GLU129      0.0388
    108  CG        71.3430   40.7310   18.5720 C.3   129  GLU129      0.1160
    109  CD        72.7940   41.1760   18.7390 C.2   129  GLU129      0.3649
    110  OE1       73.0490   42.1170   19.5220 O.co2 129  GLU129     -0.2457
    111  OE2       73.6760   40.5930   18.0800 O.co2 129  GLU129     -0.2457
    112  N         69.5780   43.6410   17.4140 N.3   131  PHE131     -0.1227
    113  CA        70.7260   44.4840   17.7380 C.3   131  PHE131      0.1736
    114  C         70.4050   45.8930   18.2010 C.2   131  PHE131      0.2595
    115  O         69.2570   46.3270   18.1780 O.2   131  PHE131     -0.2718
    116  CB        71.7120   44.5330   16.5600 C.3   131  PHE131      0.0547
    117  CG        71.1250   45.0740   15.2800 C.ar  131  PHE131     -0.0202
    118  CD1       70.5060   44.2250   14.3670 C.ar  131  PHE131     -0.0042
    119  CD2       71.2230   46.4310   14.9760 C.ar  131  PHE131     -0.0042
    120  CE1       69.9950   44.7200   13.1590 C.ar  131  PHE131     -0.0003
    121  CE2       70.7170   46.9410   13.7770 C.ar  131  PHE131     -0.0003
    122  CZ        70.1010   46.0800   12.8640 C.ar  131  PHE131     -0.0000
    123  N         71.4400   46.5990   18.6430 N.am  132  GLU132     -0.1965
    124  CA        71.2870   47.9590   19.1370 C.3   132  GLU132      0.1733
    125  C         71.8800   49.0050   18.2100 C.2   132  GLU132      0.2616
    126  O         72.8180   48.7340   17.4620 O.2   132  GLU132     -0.2715
    127  CB        71.9630   48.1080   20.5020 C.3   132  GLU132      0.0429
    128  CG        71.3130   47.3460   21.6370 C.3   132  GLU132      0.1163
    129  CD        72.0440   47.5530   22.9550 C.2   132  GLU132      0.3649
    130  OE1       73.2080   47.1110   23.0640 O.co2 132  GLU132     -0.2457
    131  OE2       71.4580   48.1630   23.8750 O.co2 132  GLU132     -0.2457
    132  N         71.3170   50.2050   18.2750 N.am  133  GLU133     -0.1963
    133  CA        71.8050   51.3390   17.5020 C.3   133  GLU133      0.1733
    134  C         72.1870   52.3660   18.5640 C.2   133  GLU133      0.2616
    135  O         71.3710   52.7010   19.4250 O.2   133  GLU133     -0.2715
    136  CB        70.7070   51.9180   16.6060 C.3   133  GLU133      0.0429
    137  CG        70.2460   51.0100   15.4770 C.3   133  GLU133      0.1163
    138  CD        71.3090   50.7780   14.4120 C.2   133  GLU133      0.3649
    139  OE1       72.3990   50.2690   14.7500 O.co2 133  GLU133     -0.2457
    140  OE2       71.0500   51.1000   13.2300 O.co2 133  GLU133     -0.2457
    141  N         73.4260   52.8420   18.5260 N.am  134  CYS134     -0.1968
    142  CA        73.8720   53.8320   19.4990 C.3   134  CYS134      0.1712
    143  C         74.2490   55.1290   18.7920 C.2   134  CYS134      0.2296
    144  O         74.4020   55.1630   17.5710 O.2   134  CYS134     -0.2864
    145  CB        75.1030   53.3460   20.2640 C.3   134  CYS134      0.0983
    146  SG        75.0710   51.7320   21.1110 S.3   134  CYS134     -0.0798
    147  N         71.9120   54.0420   23.6480 N.3   141  CYS141     -0.1235
    148  CA        71.8700   52.8630   22.8030 C.3   141  CYS141      0.1677
    149  C         70.4710   52.2890   22.9680 C.2   141  CYS141      0.2270
    150  O         69.9790   52.1470   24.0870 O.2   141  CYS141     -0.2867
    151  CB        72.8810   51.8140   23.2510 C.3   141  CYS141      0.0956
    152  SG        74.6570   52.1760   23.0520 S.3   141  CYS141     -0.0801
@<TRIPOS>BOND
     1    64    63    2
     2    99    98    2
     3    98    97    1
     4    56    55    2
     5   102   100    1
     6    63    62    1
     7    61    62    1
     8    65    62    1
     9    65    66    1
    10   100    97    1
    11   100   101    1
    12    97    96    1
    13    67    66   ar
    14    67    69   ar
    15    73    74    1
    16    55    54    1
    17    66    68   ar
    18    69    71   ar
    19    53    54    1
    20    74    75    1
    21    74    77    1
    22    54    57    1
    23    68    70   ar
    24    76    75    2
    25    71    70   ar
    26    71    72    1
    27    57    58    1
    28    77    78    1
    29    79    78   ar
    30    79    81   ar
    31    60    58   ar
    32    58    59   ar
    33    78    80   ar
    34    81    82   ar
    35    80    82   ar
    36    80    83   ar
    37    82    84   ar
    38    83    85   ar
    39    16    17    1
    40    16    15    1
    41    16    19    1
    42    20    19    1
    43    17    18    2
    44    23    22    1
    45    23    26    1
    46    23    24    1
    47    84    86   ar
    48   122   120   ar
    49   122   121   ar
    50    19    21    1
    51    87    88    1
    52    47    46    2
    53   120   118   ar
    54   140   138   ar
    55    85    86   ar
    56    26    27    1
    57    46    45    1
    58    24    25    2
    59   121   119   ar
    60    88    91    1
    61    88    89    1
    62   118   117   ar
    63   138   139   ar
    64   138   137    1
    65    27    28   ar
    66    27    29   ar
    67    91    92    1
    68    45    44    1
    69    45    48    1
    70    28    30   ar
    71   119   117   ar
    72    89    90    2
    73   117   116    1
    74   137   136    1
    75    48    49    1
    76   106   105    2
    77    29    32   ar
    78    29    31   ar
    79    49    50    1
    80    92    93    1
    81    94    93   ar
    82   103   104    1
    83    32    34   ar
    84    30    31   ar
    85    93    95   ar
    86   116   113    1
    87   136   133    1
    88    50    52   am
    89    50    51    2
    90    31    33   ar
    91   105   104    1
    92   104   107    1
    93   112   113    1
    94   126   125    2
    95   133   132    1
    96   133   134    1
    97   144   143    2
    98   107   108    1
    99    34    35   ar
   100   113   114    1
   101   111   109   ar
   102   115   114    2
   103   114   123   am
   104   125   132   am
   105   125   124    1
   106    33    35   ar
   107   141   134   am
   108   141   142    1
   109    39    38    2
   110   134   135    2
   111   108   109    1
   112   123   124    1
   113   109   110   ar
   114   143   142    1
   115    43    41    1
   116    38    37    1
   117   124   127    1
   118   142   145    1
   119    42    40    1
   120   145   146    1
   121    41    40    1
   122   127   128    1
   123    37    40    1
   124    37    36    1
   125   146   152    1
   126     3     2    1
   127     3     4    2
   128     2     5    1
   129     2     1    1
   130     9     7   ar
   131     9    10   ar
   132     7     6   ar
   133   128   129    1
   134    10    12   ar
   135    10     8   ar
   136     6     8   ar
   137     6     5    1
   138    12    14   ar
   139     8    11   ar
   140    14    13   ar
   141    11    13   ar
   142   148   149    1
   143   148   151    1
   144   148   147    1
   145   129   130   ar
   146   129   131   ar
   147   149   150    2
   148   152   151    1
