@<TRIPOS>MOLECULE
tmp/1s2nA00.pdb
 87 82 0 0 0
SMALL
GASTEIGER

@<TRIPOS>ATOM
      1  N          5.6570   -5.9910   45.2910 N.3    70  HIS70      -0.1241
      2  CA         5.0380   -5.6990   46.5860 C.3    70  HIS70       0.1621
      3  C          4.3380   -4.3490   46.5860 C.2    70  HIS70       0.2264
      4  O          3.1890   -4.2590   46.9820 O.2    70  HIS70      -0.2867
      5  CB         6.0520   -5.7930   47.7330 C.3    70  HIS70       0.0745
      6  CG         6.2090   -7.1790   48.2820 C.ar   70  HIS70       0.0817
      7  ND1        5.2870   -7.7500   49.1300 N.ar   70  HIS70      -0.2268
      8  CD2        7.1750   -8.1090   48.0980 C.ar   70  HIS70       0.1154
      9  CE1        5.6770   -8.9730   49.4440 C.ar   70  HIS70       0.1986
     10  NE2        6.8190   -9.2150   48.8290 N.ar   70  HIS70      -0.2212
     11  N          4.2580   -0.0310   53.9730 N.3   128  SER128     -0.1202
     12  CA         4.1980   -1.4820   54.1660 C.3   128  SER128      0.2020
     13  C          5.6130   -2.0790   54.2360 C.2   128  SER128      0.2619
     14  O          5.9970   -2.9220   53.4190 O.2   128  SER128     -0.2717
     15  CB         3.3830   -2.1400   53.0470 C.3   128  SER128      0.2103
     16  OG         1.9990   -1.9910   53.2680 O.3   128  SER128     -0.2182
     17  N          6.3800   -1.6370   55.2270 N.am  129  LEU129     -0.1965
     18  CA         7.7440   -2.0970   55.4170 C.3   129  LEU129      0.1728
     19  C          8.1640   -1.9270   56.8610 C.2   129  LEU129      0.2617
     20  O          7.5970   -1.1280   57.6150 O.2   129  LEU129     -0.2715
     21  CB         8.7070   -1.3320   54.5030 C.3   129  LEU129      0.0311
     22  CG         8.8110    0.1910   54.6820 C.3   129  LEU129      0.0022
     23  CD1        9.8970    0.5640   55.6790 C.3   129  LEU129      0.0001
     24  CD2        9.0730    0.8770   53.3430 C.3   129  LEU129      0.0001
     25  N          9.1870   -2.6750   57.2370 N.am  130  GLY130     -0.1940
     26  CA         9.6630   -2.6490   58.6000 C.3   130  GLY130      0.2014
     27  C         10.9780   -3.3690   58.7750 C.2   130  GLY130      0.2639
     28  O         11.5140   -3.9880   57.8550 O.2   130  GLY130     -0.2714
     29  N         11.5060   -3.2570   59.9820 N.am  131  GLY131     -0.1954
     30  CA        12.8020   -3.8130   60.3060 C.3   131  GLY131      0.1869
     31  C         13.1950   -3.3840   61.6970 C.2   131  GLY131      0.2309
     32  O         12.3370   -3.0490   62.5260 O.2   131  GLY131     -0.2863
     33  N          2.8820   -0.8040   58.5830 N.3   154  ALA154     -0.1245
     34  CA         2.7190   -2.2310   58.8540 C.3   154  ALA154      0.1562
     35  C          3.3450   -2.6170   60.2010 C.2   154  ALA154      0.2260
     36  O          4.4160   -2.1340   60.5620 O.2   154  ALA154     -0.2867
     37  CB         3.3290   -3.0500   57.7350 C.3   154  ALA154      0.0290
     38  N          4.4880   -5.6140   61.2470 N.3   156  GLY156     -0.1210
     39  CA         5.5580   -6.6060   61.1650 C.3   156  GLY156      0.1956
     40  C          4.9880   -8.0160   61.1310 C.2   156  GLY156      0.2611
     41  O          3.8320   -8.2160   61.4920 O.2   156  GLY156     -0.2717
     42  N          5.7910   -8.9900   60.7120 N.am  157  ASN157     -0.1974
     43  CA         5.3150  -10.3620   60.5040 C.3   157  ASN157      0.1688
     44  C          6.0880  -11.4320   61.2760 C.2   157  ASN157      0.2292
     45  O          6.2380  -12.5450   60.7840 O.2   157  ASN157     -0.2864
     46  CB         5.3500  -10.7130   59.0100 C.3   157  ASN157      0.1181
     47  CG         4.7340   -9.6390   58.1430 C.2   157  ASN157      0.2629
     48  OD1        3.6170   -9.2010   58.3820 O.2   157  ASN157     -0.2716
     49  ND2        5.4710   -9.1990   57.1400 N.am  157  ASN157     -0.0877
     50  N          9.9410   -2.5580   66.4810 N.3   165  THR165     -0.1218
     51  CA        10.0890   -2.3920   65.0260 C.3   165  THR165      0.1862
     52  C          9.9130   -0.9250   64.6220 C.2   165  THR165      0.2287
     53  O          9.0380   -0.2510   65.1440 O.2   165  THR165     -0.2866
     54  CB         9.0250   -3.2580   64.2990 C.3   165  THR165      0.1770
     55  OG1        9.4650   -4.6150   64.2410 O.3   165  THR165     -0.2211
     56  CG2        8.8740   -2.8840   62.8300 C.3   165  THR165      0.0375
     57  N          0.2050  -12.7220   51.6190 N.3   217  SER217     -0.1202
     58  CA        -0.1600  -12.4270   53.0000 C.3   217  SER217      0.2020
     59  C          0.9400  -11.6500   53.7200 C.2   217  SER217      0.2619
     60  O          2.1360  -11.8290   53.4480 O.2   217  SER217     -0.2717
     61  CB        -0.4270  -13.7170   53.7710 C.3   217  SER217      0.2103
     62  OG        -1.2210  -14.6150   53.0220 O.3   217  SER217     -0.2182
     63  N          0.5180  -10.8230   54.6730 N.am  218  GLY218     -0.1942
     64  CA         1.4130   -9.9450   55.4110 C.3   218  GLY218      0.2014
     65  C          0.6660   -8.7550   55.9780 C.2   218  GLY218      0.2640
     66  O         -0.4300   -8.4220   55.5090 O.2   218  GLY218     -0.2714
     67  N          1.2510   -8.1200   56.9870 N.am  219  THR219     -0.1936
     68  CA         0.7450   -6.8490   57.5070 C.3   219  THR219      0.2028
     69  C          0.8710   -5.7590   56.4470 C.2   219  THR219      0.2643
     70  O          0.2540   -4.7020   56.5570 O.2   219  THR219     -0.2714
     71  CB         1.5000   -6.4250   58.7940 C.3   219  THR219      0.1808
     72  OG1        2.9160   -6.5970   58.6320 O.3   219  THR219     -0.2208
     73  CG2        1.1510   -7.3340   59.9690 C.3   219  THR219      0.0379
     74  N          1.6900   -6.0240   55.4310 N.am  220  SER220     -0.1935
     75  CA         1.8330   -5.1530   54.2690 C.3   220  SER220      0.2055
     76  C          0.5940   -5.1110   53.4150 C.2   220  SER220      0.2642
     77  O          0.3780   -4.1250   52.7080 O.2   220  SER220     -0.2714
     78  CB         2.9780   -5.6320   53.3870 C.3   220  SER220      0.2130
     79  OG         4.2240   -5.4210   54.0320 O.3   220  SER220     -0.2179
     80  N         -0.1820   -6.1950   53.4320 N.am  221  MET221     -0.1976
     81  CA        -1.4550   -6.2480   52.7150 C.3   221  MET221      0.1605
     82  C         -2.5800   -5.6560   53.5690 C.2   221  MET221      0.2287
     83  O         -3.5780   -5.1680   53.0430 O.2   221  MET221     -0.2864
     84  CB        -1.7990   -7.6900   52.3390 C.3   221  MET221      0.0413
     85  CG        -0.9570   -8.2800   51.2170 C.3   221  MET221      0.0598
     86  SD         0.7780   -8.4810   51.6230 S.3   221  MET221     -0.1393
     87  CE         1.4860   -7.1410   50.7130 C.3   221  MET221      0.0692
@<TRIPOS>BOND
     1     1     2    1
     2     2     3    1
     3     2     5    1
     4     3     4    2
     5     5     6    1
     6     8     6   ar
     7     8    10   ar
     8     6     7   ar
     9    10     9   ar
    10     7     9   ar
    11    87    86    1
    12    85    86    1
    13    85    84    1
    14    57    58    1
    15    84    81    1
    16    77    76    2
    17    81    80    1
    18    81    82    1
    19    58    59    1
    20    58    61    1
    21    62    61    1
    22    83    82    2
    23    15    16    1
    24    15    12    1
    25    24    22    1
    26    78    79    1
    27    78    75    1
    28    76    80   am
    29    76    75    1
    30    14    13    2
    31    60    59    2
    32    59    63   am
    33    11    12    1
    34    12    13    1
    35    13    17   am
    36    75    74    1
    37    21    22    1
    38    21    18    1
    39    63    64    1
    40    22    23    1
    41    17    18    1
    42    64    65    1
    43    18    19    1
    44    74    69   am
    45    66    65    2
    46    65    67   am
    47    69    70    2
    48    69    68    1
    49    19    25   am
    50    19    20    2
    51    67    68    1
    52    49    47   am
    53    25    26    1
    54    68    71    1
    55    37    34    1
    56    28    27    2
    57    47    48    2
    58    47    46    1
    59    33    34    1
    60    26    27    1
    61    72    71    1
    62    27    29   am
    63    71    73    1
    64    34    35    1
    65    46    43    1
    66    29    30    1
    67    35    36    2
    68    30    31    1
    69    43    42    1
    70    43    44    1
    71    42    40   am
    72    45    44    2
    73    40    39    1
    74    40    41    2
    75    39    38    1
    76    31    32    2
    77    56    54    1
    78    55    54    1
    79    54    51    1
    80    52    51    1
    81    52    53    2
    82    51    50    1
