@<TRIPOS>MOLECULE
tmp/1s2uA00.pdb
 98 92 0 0 0
SMALL
GASTEIGER

@<TRIPOS>ATOM
      1  N         40.5480    3.4500   17.2610 N.3    40  TRP40      -0.1241
      2  CA        40.0410    3.9950   18.5160 C.3    40  TRP40       0.1605
      3  C         41.2290    4.6450   19.2330 C.2    40  TRP40       0.2264
      4  O         42.1860    3.9690   19.5850 O.2    40  TRP40      -0.2867
      5  CB        39.4510    2.8660   19.3670 C.3    40  TRP40       0.0550
      6  CG        39.1020    3.2270   20.7900 C.ar   40  TRP40       0.0003
      7  CD1       39.6040    2.6400   21.9140 C.ar   40  TRP40       0.0946
      8  CD2       38.1240    4.1810   21.2420 C.ar   40  TRP40       0.0152
      9  NE1       39.0070    3.1550   23.0260 N.ar   40  TRP40      -0.2442
     10  CE2       38.0910    4.1030   22.6520 C.ar   40  TRP40       0.0810
     11  CE3       37.2760    5.0910   20.5950 C.ar   40  TRP40       0.0012
     12  CZ2       37.2440    4.8980   23.4350 C.ar   40  TRP40       0.0191
     13  CZ3       36.4310    5.8860   21.3680 C.ar   40  TRP40       0.0001
     14  CH2       36.4230    5.7830   22.7850 C.ar   40  TRP40       0.0015
     15  N         42.2210    5.4680   22.1570 N.3    42  SER42      -0.1202
     16  CA        41.9470    5.2060   23.5610 C.3    42  SER42       0.2020
     17  C         42.5950    6.1650   24.5690 C.2    42  SER42       0.2619
     18  O         43.7930    6.4340   24.5000 O.2    42  SER42      -0.2717
     19  CB        42.3520    3.7560   23.8690 C.3    42  SER42       0.2103
     20  OG        42.3920    3.5160   25.2590 O.3    42  SER42      -0.2182
     21  N         41.7840    6.6760   25.5000 N.am   43  GLY43      -0.1942
     22  CA        42.2890    7.5690   26.5350 C.3    43  GLY43       0.2014
     23  C         43.2090    6.8080   27.4700 C.2    43  GLY43       0.2638
     24  O         44.2180    7.3320   27.9420 O.2    43  GLY43      -0.2714
     25  N         42.8680    5.5550   27.7370 N.am   44  LEU44      -0.1977
     26  CA        43.6970    4.7190   28.5950 C.3    44  LEU44       0.1596
     27  C         45.0430    4.4640   27.9180 C.2    44  LEU44       0.2287
     28  O         46.0930    4.6070   28.5420 O.2    44  LEU44      -0.2864
     29  CB        43.0320    3.3650   28.8550 C.3    44  LEU44       0.0297
     30  CG        43.9610    2.4440   29.6630 C.3    44  LEU44       0.0022
     31  CD1       44.1600    3.0560   31.0580 C.3    44  LEU44       0.0001
     32  CD2       43.3950    1.0510   29.7740 C.3    44  LEU44       0.0001
     33  N         39.0750    9.2740   22.0780 N.3    81  ASP81      -0.1239
     34  CA        38.3660    9.1990   23.3510 C.3    81  ASP81       0.1674
     35  C         38.8480   10.4810   24.0170 C.2    81  ASP81       0.2266
     36  O         39.9780   10.5470   24.4970 O.2    81  ASP81      -0.2867
     37  CB        38.8160    7.9460   24.1140 C.3    81  ASP81       0.1410
     38  CG        38.5210    8.0070   25.5990 C.2    81  ASP81       0.3668
     39  OD1       37.6330    8.7620   26.0310 O.co2  81  ASP81      -0.2456
     40  OD2       39.1910    7.2650   26.3400 O.co2  81  ASP81      -0.2456
     41  N         30.5970   12.5240   32.4930 N.3   112  LYS112     -0.1245
     42  CA        30.9080   12.3950   33.9090 C.3   112  LYS112      0.1561
     43  C         31.3740   13.7470   34.4420 C.2   112  LYS112      0.2260
     44  O         31.7390   14.6280   33.6610 O.2   112  LYS112     -0.2867
     45  CB        31.9760   11.3250   34.1250 C.3   112  LYS112      0.0271
     46  CG        33.3140   11.6750   33.5870 C.3   112  LYS112      0.0035
     47  CD        34.0230   10.4270   33.1090 C.3   112  LYS112      0.0206
     48  CE        34.1860    9.3780   34.1930 C.3   112  LYS112      0.1093
     49  NZ        34.8710    8.1710   33.6260 N.3   112  LYS112     -0.1314
     50  N         29.4220    9.3920   25.0340 N.3   155  ARG155     -0.1245
     51  CA        29.4880    8.2130   25.8930 C.3   155  ARG155      0.1563
     52  C         28.6650    8.4820   27.1480 C.2   155  ARG155      0.2260
     53  O         28.8770    9.4860   27.8340 O.2   155  ARG155     -0.2867
     54  CB        30.9390    7.9070   26.2660 C.3   155  ARG155      0.0307
     55  CG        31.1000    6.7360   27.2270 C.3   155  ARG155      0.0489
     56  CD        32.5640    6.5210   27.5900 C.3   155  ARG155      0.2205
     57  NE        32.7120    5.4600   28.5820 N.pl3 155  ARG155     -0.0865
     58  CZ        33.8610    5.1230   29.1630 C.cat 155  ARG155      0.5346
     59  NH1       34.9820    5.7640   28.8560 N.pl3 155  ARG155      0.1354
     60  NH2       33.8880    4.1470   30.0630 N.pl3 155  ARG155      0.1354
     61  N         27.6190    2.6810   34.4120 N.3   160  ILE160     -0.1245
     62  CA        28.8680    2.5970   35.1510 C.3   160  ILE160      0.1561
     63  C         28.7850    3.3780   36.4630 C.2   160  ILE160      0.2260
     64  O         29.3120    2.9330   37.4900 O.2   160  ILE160     -0.2867
     65  CB        30.0360    3.1460   34.3160 C.3   160  ILE160      0.0252
     66  CG1       30.2780    2.2320   33.1120 C.3   160  ILE160      0.0019
     67  CG2       31.2810    3.2670   35.1760 C.3   160  ILE160      0.0019
     68  CD1       31.4750    2.6370   32.2690 C.3   160  ILE160      0.0001
     69  N         28.1840    2.1800   27.6910 N.3   186  HIS186     -0.1241
     70  CA        29.1320    1.3430   28.4000 C.3   186  HIS186      0.1621
     71  C         28.6130    0.8690   29.7510 C.2   186  HIS186      0.2264
     72  O         27.7040    1.4680   30.3250 O.2   186  HIS186     -0.2867
     73  CB        30.4330    2.1250   28.5760 C.3   186  HIS186      0.0745
     74  CG        31.6290    1.2550   28.7800 C.ar  186  HIS186      0.0817
     75  ND1       31.7130   -0.0200   28.2620 N.ar  186  HIS186     -0.2268
     76  CD2       32.7960    1.4770   29.4300 C.ar  186  HIS186      0.1154
     77  CE1       32.8800   -0.5460   28.5890 C.ar  186  HIS186      0.1986
     78  NE2       33.5550    0.3420   29.2970 N.ar  186  HIS186     -0.2212
     79  N         31.8110   -1.1610   23.9260 N.3   211  VAL211     -0.1245
     80  CA        33.1690   -1.6110   24.2180 C.3   211  VAL211      0.1561
     81  C         32.9350   -2.9000   24.9790 C.2   211  VAL211      0.2260
     82  O         32.5660   -2.8700   26.1480 O.2   211  VAL211     -0.2867
     83  CB        33.8890   -0.6150   25.1300 C.3   211  VAL211      0.0252
     84  CG1       35.3100   -1.0630   25.3800 C.3   211  VAL211      0.0019
     85  CG2       33.8790    0.7500   24.4910 C.3   211  VAL211      0.0019
     86  N         38.9240   -1.7760   22.5510 N.3   234  ALA234     -0.1231
     87  CA        39.5190   -0.6890   23.3150 C.3   234  ALA234      0.1694
     88  C         40.9600   -0.5710   23.7780 C.2   234  ALA234      0.2592
     89  O         41.4340    0.5480   23.9470 O.2   234  ALA234     -0.2718
     90  CB        38.6290   -0.4260   24.5180 C.3   234  ALA234      0.0304
     91  N         41.6800   -1.6630   23.9720 N.am  235  ASN235     -0.1974
     92  CA        43.0170   -1.4960   24.5320 C.3   235  ASN235      0.1688
     93  C         43.9280   -2.6960   24.3810 C.2   235  ASN235      0.2292
     94  O         44.9290   -2.7980   25.0850 O.2   235  ASN235     -0.2864
     95  CB        42.8690   -1.2060   26.0280 C.3   235  ASN235      0.1181
     96  CG        41.9840   -2.2430   26.7400 C.2   235  ASN235      0.2629
     97  OD1       42.0080   -3.4310   26.4040 O.2   235  ASN235     -0.2716
     98  ND2       41.2140   -1.7980   27.7290 N.am  235  ASN235     -0.0877
@<TRIPOS>BOND
     1     1     2    1
     2     2     3    1
     3     2     5    1
     4     3     4    2
     5     5     6    1
     6    11     8   ar
     7    11    13   ar
     8     6     8   ar
     9     6     7   ar
    10     8    10   ar
    11    13    14   ar
    12     7     9   ar
    13    33    34    1
    14    15    16    1
    15    86    87    1
    16    10     9   ar
    17    10    12   ar
    18    14    12   ar
    19    87    88    1
    20    87    90    1
    21    34    35    1
    22    34    37    1
    23    16    19    1
    24    16    17    1
    25    88    89    2
    26    88    91   am
    27    19    20    1
    28    79    80    1
    29    91    92    1
    30    35    36    2
    31    37    38    1
    32    80    81    1
    33    80    83    1
    34    93    92    1
    35    93    94    2
    36    85    83    1
    37    18    17    2
    38    92    95    1
    39    17    21   am
    40    81    82    2
    41    50    51    1
    42    83    84    1
    43    21    22    1
    44    38    39   ar
    45    38    40   ar
    46    51    54    1
    47    51    52    1
    48    95    96    1
    49    54    55    1
    50    97    96    2
    51    22    23    1
    52    96    98   am
    53    52    53    2
    54    55    56    1
    55    23    25   am
    56    23    24    2
    57    56    57    1
    58    69    70    1
    59    25    26    1
    60    27    28    2
    61    27    26    1
    62    75    77   ar
    63    75    74   ar
    64    70    73    1
    65    70    71    1
    66    73    74    1
    67    57    58    2
    68    77    78   ar
    69    26    29    1
    70    74    76   ar
    71    29    30    1
    72    59    58    1
    73    58    60    1
    74    78    76   ar
    75    30    32    1
    76    30    31    1
    77    71    72    2
    78    68    66    1
    79    41    42    1
    80    47    46    1
    81    47    48    1
    82    66    65    1
    83    46    45    1
    84    49    48    1
    85    44    43    2
    86    42    45    1
    87    42    43    1
    88    65    62    1
    89    65    67    1
    90    61    62    1
    91    62    63    1
    92    63    64    2
