@<TRIPOS>MOLECULE
tmp/1s2uB00.pdb
 113 105 0 0 0
SMALL
GASTEIGER

@<TRIPOS>ATOM
      1  N         53.0150   39.3770    7.4490 N.3    40  TRP40      -0.1241
      2  CA        54.3600   38.8390    7.2790 C.3    40  TRP40       0.1605
      3  C         54.7790   38.1820    8.5940 C.2    40  TRP40       0.2264
      4  O         55.0520   38.8720    9.5740 O.2    40  TRP40      -0.2867
      5  CB        55.3350   39.9670    6.9560 C.3    40  TRP40       0.0550
      6  CG        56.7930   39.5850    7.0120 C.ar   40  TRP40       0.0003
      7  CD1       57.7440   40.1120    7.8430 C.ar   40  TRP40       0.0946
      8  CD2       57.4790   38.6680    6.1520 C.ar   40  TRP40       0.0152
      9  NE1       58.9760   39.5850    7.5490 N.ar   40  TRP40      -0.2442
     10  CE2       58.8440   38.6950    6.5160 C.ar   40  TRP40       0.0810
     11  CE3       57.0720   37.8250    5.1090 C.ar   40  TRP40       0.0012
     12  CZ2       59.8140   37.9090    5.8690 C.ar   40  TRP40       0.0191
     13  CZ3       58.0380   37.0410    4.4610 C.ar   40  TRP40       0.0001
     14  CH2       59.3930   37.0920    4.8480 C.ar   40  TRP40       0.0015
     15  N         62.4170   37.1160   12.2440 N.3    44  LEU44      -0.1245
     16  CA        63.0800   37.9380   13.2500 C.3    44  LEU44       0.1561
     17  C         62.1460   38.2110   14.4250 C.2    44  LEU44       0.2260
     18  O         62.5230   38.0200   15.5780 O.2    44  LEU44      -0.2867
     19  CB        63.5230   39.2760   12.6600 C.3    44  LEU44       0.0270
     20  CG        64.0970   40.2230   13.7180 C.3    44  LEU44       0.0019
     21  CD1       65.3280   39.5820   14.3640 C.3    44  LEU44       0.0001
     22  CD2       64.4410   41.5690   13.0780 C.3    44  LEU44       0.0001
     23  N         58.0150   33.5790    7.2920 N.3    81  ASP81      -0.1239
     24  CA        59.4420   33.7090    7.0110 C.3    81  ASP81       0.1674
     25  C         59.9800   32.3710    7.5590 C.2    81  ASP81       0.2266
     26  O         60.2380   32.2430    8.7510 O.2    81  ASP81      -0.2867
     27  CB        60.0170   34.8850    7.8100 C.3    81  ASP81       0.1410
     28  CG        61.5350   34.9860    7.7140 C.2    81  ASP81       0.3668
     29  OD1       62.1460   34.2050    6.9650 O.co2  81  ASP81      -0.2456
     30  OD2       62.1160   35.8560    8.4010 O.co2  81  ASP81      -0.2456
     31  N         62.8720   30.8560    6.9650 N.3    83  ASP83      -0.1239
     32  CA        64.3060   30.7000    6.8040 C.3    83  ASP83       0.1674
     33  C         64.6260   29.7880    5.6290 C.2    83  ASP83       0.2266
     34  O         64.2110   30.0880    4.5150 O.2    83  ASP83      -0.2867
     35  CB        64.9120   30.1710    8.0970 C.3    83  ASP83       0.1410
     36  CG        65.0190   31.2490    9.1430 C.2    83  ASP83       0.3668
     37  OD1       63.9840   31.8550    9.4730 O.co2  83  ASP83      -0.2456
     38  OD2       66.1420   31.5060    9.6240 O.co2  83  ASP83      -0.2456
     39  N         64.6180   30.7990    2.0000 N.3   110  GLU110     -0.1245
     40  CA        65.7800   31.4910    1.4660 C.3   110  GLU110      0.1567
     41  C         66.9100   30.5190    1.1280 C.2   110  GLU110      0.2260
     42  O         67.0680   29.4730    1.7680 O.2   110  GLU110     -0.2867
     43  CB        66.2530   32.5490    2.4760 C.3   110  GLU110      0.0388
     44  CG        66.6650   31.9640    3.8120 C.3   110  GLU110      0.1160
     45  CD        66.5440   32.9510    4.9570 C.2   110  GLU110      0.3649
     46  OE1       65.6680   33.8410    4.9020 O.co2 110  GLU110     -0.2457
     47  OE2       67.3090   32.8160    5.9290 O.co2 110  GLU110     -0.2457
     48  N         70.0720   30.3950    1.6990 N.3   112  LYS112     -0.1245
     49  CA        71.2870   30.5480    2.5010 C.3   112  LYS112      0.1561
     50  C         71.7400   29.1550    2.9160 C.2   112  LYS112      0.2260
     51  O         70.9320   28.2250    2.9310 O.2   112  LYS112     -0.2867
     52  CB        71.0200   31.3480    3.7840 C.3   112  LYS112      0.0271
     53  CG        70.4830   32.7410    3.5740 C.3   112  LYS112      0.0035
     54  CD        70.7610   33.6360    4.7760 C.3   112  LYS112      0.0206
     55  CE        70.2010   33.0580    6.0640 C.3   112  LYS112      0.1093
     56  NZ        70.3870   34.0050    7.2040 N.3   112  LYS112     -0.1314
     57  N         63.3310   33.3610   -1.4830 N.3   155  ARG155     -0.1245
     58  CA        64.1190   34.5280   -1.1570 C.3   155  ARG155      0.1563
     59  C         65.5340   34.3020   -1.6460 C.2   155  ARG155      0.2260
     60  O         66.1960   33.3500   -1.2240 O.2   155  ARG155     -0.2867
     61  CB        64.1000   34.7550    0.3540 C.3   155  ARG155      0.0307
     62  CG        65.1350   35.7160    0.8490 C.3   155  ARG155      0.0489
     63  CD        64.8360   36.1470    2.2840 C.3   155  ARG155      0.2205
     64  NE        65.9910   36.8370    2.8400 N.pl3 155  ARG155     -0.0865
     65  CZ        65.9670   37.6030    3.9270 C.cat 155  ARG155      0.5346
     66  NH1       64.8320   37.7840    4.5860 N.pl3 155  ARG155      0.1354
     67  NH2       67.0830   38.1930    4.3480 N.pl3 155  ARG155      0.1354
     68  N         66.1650   40.5200   -2.0750 N.3   186  HIS186     -0.1241
     69  CA        66.5930   41.3430   -0.9620 C.3   186  HIS186      0.1621
     70  C         67.9920   41.9400   -1.0910 C.2   186  HIS186      0.2264
     71  O         68.8110   41.4770   -1.8910 O.2   186  HIS186     -0.2867
     72  CB        66.4670   40.5180    0.3260 C.3   186  HIS186      0.0745
     73  CG        66.3700   41.3480    1.5640 C.ar  186  HIS186      0.0817
     74  ND1       65.8180   42.6120    1.5700 N.ar  186  HIS186     -0.2268
     75  CD2       66.7500   41.0950    2.8390 C.ar  186  HIS186      0.1154
     76  CE1       65.8660   43.1040    2.7960 C.ar  186  HIS186      0.1986
     77  NE2       66.4270   42.2030    3.5850 N.ar  186  HIS186     -0.2212
     78  N         61.6410   43.9890    0.5480 N.3   211  VAL211     -0.1245
     79  CA        61.6000   44.4060    1.9410 C.3   211  VAL211      0.1561
     80  C         62.3970   45.7070    2.0260 C.2   211  VAL211      0.2260
     81  O         63.6100   45.6750    2.1840 O.2   211  VAL211     -0.2867
     82  CB        62.2680   43.3540    2.8350 C.3   211  VAL211      0.0252
     83  CG1       62.1210   43.7600    4.2880 C.3   211  VAL211      0.0019
     84  CG2       61.6360   41.9780    2.6060 C.3   211  VAL211      0.0019
     85  N         62.9590   47.9040    4.2960 N.3   213  THR213     -0.1203
     86  CA        63.4260   48.3230    5.6090 C.3   213  THR213      0.1994
     87  C         64.6400   49.2660    5.6440 C.2   213  THR213      0.2617
     88  O         64.5980   50.2980    6.3160 O.2   213  THR213     -0.2717
     89  CB        63.7370   47.0910    6.4640 C.3   213  THR213      0.1784
     90  OG1       62.6670   46.1430    6.3240 O.3   213  THR213     -0.2211
     91  CG2       63.8930   47.4830    7.9250 C.3   213  THR213      0.0376
     92  N         65.7150   48.9120    4.9400 N.am  214  LYS214     -0.1979
     93  CA        66.9320   49.7200    4.9310 C.3   214  LYS214      0.1596
     94  C         66.8630   50.9390    4.0090 C.2   214  LYS214      0.2287
     95  O         67.5530   51.9340    4.2380 O.2   214  LYS214     -0.2864
     96  CB        68.1350   48.8630    4.5300 C.3   214  LYS214      0.0298
     97  CG        68.3870   47.6350    5.4140 C.3   214  LYS214      0.0038
     98  CD        68.6580   48.0310    6.8470 C.3   214  LYS214      0.0206
     99  CE        68.7480   46.8180    7.7670 C.3   214  LYS214      0.1093
    100  NZ        68.8460   47.2480    9.1990 N.3   214  LYS214     -0.1314
    101  N         58.5520   44.5500    7.1650 N.3   234  ALA234     -0.1231
    102  CA        59.1310   43.4720    7.9470 C.3   234  ALA234      0.1694
    103  C         59.1900   43.3340    9.4580 C.2   234  ALA234      0.2592
    104  O         59.1300   42.2200    9.9440 O.2   234  ALA234     -0.2718
    105  CB        60.5470   43.2160    7.4010 C.3   234  ALA234      0.0304
    106  N         59.2920   44.4080   10.2250 N.am  235  ASN235     -0.1974
    107  CA        59.4880   44.1850   11.6520 C.3   235  ASN235      0.1688
    108  C         59.0970   45.3590   12.5200 C.2   235  ASN235      0.2292
    109  O         59.5340   45.4650   13.6660 O.2   235  ASN235     -0.2864
    110  CB        60.9700   43.9280   11.8470 C.3   235  ASN235      0.1181
    111  CG        61.8110   44.9930   11.1690 C.2   235  ASN235      0.2629
    112  OD1       61.4180   46.1610   11.1320 O.2   235  ASN235     -0.2716
    113  ND2       62.9720   44.6050   10.6260 N.am  235  ASN235     -0.0877
@<TRIPOS>BOND
     1    68    69    1
     2    71    70    2
     3    59    60    2
     4    59    58    1
     5    57    58    1
     6    58    61    1
     7    70    69    1
     8    69    72    1
     9    72    73    1
    10    61    62    1
    11    78    79    1
    12    62    63    1
    13    41    40    1
    14    41    42    2
    15    40    39    1
    16    40    43    1
    17    73    74   ar
    18    73    75   ar
    19    74    76   ar
    20    48    49    1
    21    79    80    1
    22    79    82    1
    23    80    81    2
    24    63    64    1
    25    43    44    1
    26    49    50    1
    27    49    52    1
    28    84    82    1
    29    76    77   ar
    30    82    83    1
    31    75    77   ar
    32    64    65    2
    33    50    51    2
    34    53    52    1
    35    53    54    1
    36    44    45    1
    37    65    67    1
    38    65    66    1
    39    94    95    2
    40    94    93    1
    41    85    86    1
    42    13    14   ar
    43    13    11   ar
    44    34    33    2
    45    96    93    1
    46    96    97    1
    47    54    55    1
    48    14    12   ar
    49    46    45   ar
    50    93    92    1
    51    92    87   am
    52    45    47   ar
    53    11     8   ar
    54    97    98    1
    55    86    87    1
    56    86    89    1
    57    33    32    1
    58    87    88    2
    59    12    10   ar
    60    55    56    1
    61     8    10   ar
    62     8     6   ar
    63    90    89    1
    64    89    91    1
    65    10     9   ar
    66    32    31    1
    67    32    35    1
    68    98    99    1
    69     5     6    1
    70     5     2    1
    71    29    28   ar
    72    24    23    1
    73    24    25    1
    74    24    27    1
    75     6     7   ar
    76   101   102    1
    77     2     1    1
    78     2     3    1
    79   105   102    1
    80     9     7   ar
    81    25    26    2
    82    28    27    1
    83    28    30   ar
    84    99   100    1
    85   102   103    1
    86    35    36    1
    87     3     4    2
    88    36    37   ar
    89    36    38   ar
    90   103   104    2
    91   103   106   am
    92   106   107    1
    93   113   111   am
    94   112   111    2
    95   111   110    1
    96   107   110    1
    97   107   108    1
    98    15    16    1
    99   108   109    2
   100    19    16    1
   101    19    20    1
   102    22    20    1
   103    16    17    1
   104    20    21    1
   105    17    18    2
