@<TRIPOS>MOLECULE
tmp/1s39A00.pdb
 110 102 0 0 0
SMALL
GASTEIGER

@<TRIPOS>ATOM
      1  N          9.4850   12.2740   22.4130 N.3    92  ASP92      -0.1225
      2  CA        10.4020   13.2630   22.9740 C.3    92  ASP92       0.1805
      3  C          9.6100   13.9470   24.0820 C.2    92  ASP92       0.2598
      4  O          8.3870   13.8110   24.1450 O.2    92  ASP92      -0.2718
      5  CB        10.8330   14.2830   21.9200 C.3    92  ASP92       0.1424
      6  CG        12.0440   15.0940   22.3550 C.2    92  ASP92       0.3668
      7  OD1       12.5510   15.8900   21.5350 O.co2  92  ASP92      -0.2456
      8  OD2       12.4960   14.9370   23.5130 O.co2  92  ASP92      -0.2456
      9  N         10.2990   14.6780   24.9510 N.am   93  SER93      -0.1952
     10  CA         9.6510   15.3360   26.0800 C.3    93  SER93       0.1924
     11  C          8.8720   16.6190   25.7700 C.2    93  SER93       0.2314
     12  O          8.1090   17.0960   26.6080 O.2    93  SER93      -0.2863
     13  CB        10.6900   15.5980   27.1730 C.3    93  SER93       0.2116
     14  OG        11.9240   16.0290   26.6190 O.3    93  SER93      -0.2180
     15  N         12.0840   20.6180   24.0470 N.3    96  TYR96      -0.1241
     16  CA        12.9050   21.0260   22.9130 C.3    96  TYR96       0.1605
     17  C         12.0950   21.8300   21.9060 C.2    96  TYR96       0.2264
     18  O         12.3970   22.9910   21.6320 O.2    96  TYR96      -0.2867
     19  CB        13.4740   19.7910   22.2210 C.3    96  TYR96       0.0534
     20  CG        14.5480   20.0850   21.2030 C.ar   96  TYR96      -0.0201
     21  CD1       15.8140   20.5110   21.6030 C.ar   96  TYR96      -0.0009
     22  CD2       14.3090   19.9150   19.8410 C.ar   96  TYR96      -0.0009
     23  CE1       16.8180   20.7550   20.6700 C.ar   96  TYR96       0.0417
     24  CE2       15.3060   20.1580   18.8990 C.ar   96  TYR96       0.0417
     25  CZ        16.5580   20.5750   19.3220 C.ar   96  TYR96       0.1957
     26  OH        17.5570   20.7990   18.4010 O.3    96  TYR96      -0.2866
     27  N         13.9250   17.8910   29.4730 N.3   140  ASP140     -0.1239
     28  CA        15.1590   18.6340   29.6160 C.3   140  ASP140      0.1674
     29  C         15.0670   20.0370   29.0440 C.2   140  ASP140      0.2266
     30  O         14.0740   20.4090   28.4170 O.2   140  ASP140     -0.2867
     31  CB        16.2900   17.8760   28.9110 C.3   140  ASP140      0.1410
     32  CG        16.0910   17.8030   27.4020 C.2   140  ASP140      0.3668
     33  OD1       14.9230   17.7330   26.9560 O.co2 140  ASP140     -0.2456
     34  OD2       17.0970   17.8080   26.6600 O.co2 140  ASP140     -0.2456
     35  N         17.1460   22.3570   26.5350 N.3   142  CYS142     -0.1235
     36  CA        18.2380   22.3320   25.5770 C.3   142  CYS142      0.1677
     37  C         19.1030   23.5780   25.7160 C.2   142  CYS142      0.2270
     38  O         18.6290   24.6450   26.1130 O.2   142  CYS142     -0.2867
     39  CB        17.7060   22.2090   24.1480 C.3   142  CYS142      0.0956
     40  SG        18.9040   21.4550   23.0110 S.3   142  CYS142     -0.0801
     41  N         18.7420   12.2880   29.3410 N.3   185  ILE185     -0.1245
     42  CA        19.3890   13.0170   28.2590 C.3   185  ILE185      0.1561
     43  C         20.6110   13.7990   28.7230 C.2   185  ILE185      0.2260
     44  O         20.5170   14.6670   29.5950 O.2   185  ILE185     -0.2867
     45  CB        18.4170   14.0060   27.5770 C.3   185  ILE185      0.0252
     46  CG1       17.1500   13.2770   27.1190 C.3   185  ILE185      0.0019
     47  CG2       19.0940   14.6350   26.3640 C.3   185  ILE185      0.0019
     48  CD1       16.0670   14.2080   26.5580 C.3   185  ILE185      0.0001
     49  N         23.5290   16.5250   28.5320 N.3   187  GLN187     -0.1245
     50  CA        23.6850   17.8760   28.0110 C.3   187  GLN187      0.1566
     51  C         25.1110   18.3130   28.3190 C.2   187  GLN187      0.2260
     52  O         25.9620   17.4790   28.6210 O.2   187  GLN187     -0.2867
     53  CB        22.6830   18.8260   28.6680 C.3   187  GLN187      0.0367
     54  CG        21.2290   18.5570   28.2930 C.3   187  GLN187      0.0905
     55  CD        20.9710   18.7420   26.8120 C.2   187  GLN187      0.2608
     56  OE1       21.7140   19.4450   26.1270 O.2   187  GLN187     -0.2717
     57  NE2       19.9040   18.1240   26.3100 N.am  187  GLN187     -0.0878
     58  N         22.0740   14.6820   23.9750 N.3   213  GLY213     -0.1210
     59  CA        21.3010   15.8140   23.4920 C.3   213  GLY213      0.1956
     60  C         22.1270   17.0390   23.1490 C.2   213  GLY213      0.2612
     61  O         23.3380   17.0580   23.3600 O.2   213  GLY213     -0.2717
     62  N         21.4630   18.0520   22.5980 N.am  214  GLY214     -0.1942
     63  CA        22.1250   19.2960   22.2410 C.3   214  GLY214      0.2014
     64  C         23.1740   19.2250   21.1450 C.2   214  GLY214      0.2639
     65  O         24.0780   20.0610   21.1060 O.2   214  GLY214     -0.2714
     66  N         23.0580   18.2580   20.2390 N.am  215  LEU215     -0.1963
     67  CA        24.0400   18.1290   19.1670 C.3   215  LEU215      0.1728
     68  C         23.4930   18.3320   17.7550 C.2   215  LEU215      0.2616
     69  O         24.1700   18.0480   16.7690 O.2   215  LEU215     -0.2715
     70  CB        24.7430   16.7760   19.2760 C.3   215  LEU215      0.0311
     71  CG        26.2550   16.8490   19.5120 C.3   215  LEU215      0.0022
     72  CD1       26.5920   17.9400   20.5210 C.3   215  LEU215      0.0001
     73  CD2       26.7590   15.4970   19.9900 C.3   215  LEU215      0.0001
     74  N         22.2640   18.8200   17.6550 N.am  216  ALA216     -0.1977
     75  CA        21.6630   19.0940   16.3540 C.3   216  ALA216      0.1597
     76  C         21.3270   20.5810   16.3860 C.2   216  ALA216      0.2287
     77  O         20.2220   20.9960   16.0390 O.2   216  ALA216     -0.2864
     78  CB        20.4030   18.2630   16.1660 C.3   216  ALA216      0.0319
     79  N         21.5340    7.0250   22.4130 N.3   242  TYR242     -0.1241
     80  CA        20.6710    7.6470   21.4180 C.3   242  TYR242      0.1605
     81  C         21.0610    9.0740   21.0300 C.2   242  TYR242      0.2264
     82  O         21.0180    9.9890   21.8450 O.2   242  TYR242     -0.2867
     83  CB        19.2310    7.5550   21.9610 C.3   242  TYR242      0.0534
     84  CG        18.1600    8.3950   21.3020 C.ar  242  TYR242     -0.0201
     85  CD1       18.2120    8.7230   19.9470 C.ar  242  TYR242     -0.0009
     86  CD2       17.0610    8.8360   22.0500 C.ar  242  TYR242     -0.0009
     87  CE1       17.1880    9.4790   19.3550 C.ar  242  TYR242      0.0417
     88  CE2       16.0460    9.5810   21.4770 C.ar  242  TYR242      0.0417
     89  CZ        16.1110    9.9040   20.1340 C.ar  242  TYR242      0.1957
     90  OH        15.1170   10.6800   19.5930 O.3   242  TYR242     -0.2866
     91  N         20.0320   12.1580   19.4670 N.3   244  MET244     -0.1230
     92  CA        18.8030   12.8350   19.0830 C.3   244  MET244      0.1702
     93  C         18.9090   13.8130   17.9110 C.2   244  MET244      0.2592
     94  O         19.8870   14.5500   17.7830 O.2   244  MET244     -0.2718
     95  CB        18.2200   13.5640   20.2970 C.3   244  MET244      0.0401
     96  CG        17.9130   12.6610   21.4920 C.3   244  MET244      0.0596
     97  SD        17.1490   13.5490   22.8790 S.3   244  MET244     -0.1393
     98  CE        15.4100   13.3020   22.4930 C.3   244  MET244      0.0692
     99  N         17.8850   13.8020   17.0630 N.am  245  GLY245     -0.1957
    100  CA        17.8200   14.7030   15.9230 C.3   245  GLY245      0.1869
    101  C         18.9140   14.5620   14.8830 C.2   245  GLY245      0.2309
    102  O         19.0040   15.3800   13.9760 O.2   245  GLY245     -0.2863
    103  N         17.2260    9.4420   14.9620 N.3   264  ASP264     -0.1239
    104  CA        15.9560    9.9790   14.4940 C.3   264  ASP264      0.1674
    105  C         16.3040   11.2910   13.7980 C.2   264  ASP264      0.2266
    106  O         17.2220   12.0020   14.2110 O.2   264  ASP264     -0.2867
    107  CB        14.9840   10.2520   15.6500 C.3   264  ASP264      0.1410
    108  CG        15.2420   11.5810   16.3260 C.2   264  ASP264      0.3668
    109  OD1       16.0000   11.6130   17.3080 O.co2 264  ASP264     -0.2456
    110  OD2       14.6960   12.6020   15.8630 O.co2 264  ASP264     -0.2456
@<TRIPOS>BOND
     1   105   106    2
     2   105   104    1
     3   102   101    2
     4   104   103    1
     5   104   107    1
     6   101   100    1
     7   107   108    1
     8   110   108   ar
     9   100    99    1
    10    77    76    2
    11    78    75    1
    12   108   109   ar
    13    75    76    1
    14    75    74    1
    15    69    68    2
    16    99    93   am
    17    74    68   am
    18    68    67    1
    19    94    93    2
    20    93    92    1
    21    26    25    1
    22    24    25   ar
    23    24    22   ar
    24    92    91    1
    25    92    95    1
    26    67    70    1
    27    67    66    1
    28    70    71    1
    29    25    23   ar
    30    87    85   ar
    31    87    89   ar
    32    71    73    1
    33    71    72    1
    34    90    89    1
    35    22    20   ar
    36    85    84   ar
    37    89    88   ar
    38    66    64   am
    39    95    96    1
    40    23    21   ar
    41    81    80    1
    42    81    82    2
    43    65    64    2
    44    64    63    1
    45    20    21   ar
    46    20    19    1
    47    84    83    1
    48    84    86   ar
    49    80    83    1
    50    80    79    1
    51    88    86   ar
    52    96    97    1
    53     7     6   ar
    54    18    17    2
    55    17    16    1
    56     5     6    1
    57     5     2    1
    58    19    16    1
    59    63    62    1
    60     6     8   ar
    61     1     2    1
    62    98    97    1
    63    62    60   am
    64    16    15    1
    65     2     3    1
    66    40    39    1
    67    60    61    2
    68    60    59    1
    69    59    58    1
    70     3     4    2
    71     3     9   am
    72    39    36    1
    73     9    10    1
    74    36    37    1
    75    36    35    1
    76    37    38    2
    77    11    10    1
    78    11    12    2
    79    10    13    1
    80    56    55    2
    81    57    55   am
    82    47    45    1
    83    48    46    1
    84    14    13    1
    85    34    32   ar
    86    55    54    1
    87    33    32   ar
    88    46    45    1
    89    32    31    1
    90    45    42    1
    91    50    51    1
    92    50    49    1
    93    50    53    1
    94    42    43    1
    95    42    41    1
    96    54    53    1
    97    51    52    2
    98    30    29    2
    99    43    44    2
   100    31    28    1
   101    29    28    1
   102    27    28    1
