@<TRIPOS>MOLECULE
tmp/1s3fA00.pdb
 134 129 0 0 0
SMALL
GASTEIGER

@<TRIPOS>ATOM
      1  N        -10.2580   -0.5980  -16.8490 N.3    11  TYR11      -0.1241
      2  CA        -8.9800   -1.0850  -17.3130 C.3    11  TYR11       0.1605
      3  C         -9.3950   -2.3200  -18.0970 C.2    11  TYR11       0.2264
      4  O         -9.7620   -3.3370  -17.5120 O.2    11  TYR11      -0.2867
      5  CB        -8.0660   -1.5200  -16.1760 C.3    11  TYR11       0.0534
      6  CG        -6.7530   -2.0270  -16.7140 C.ar   11  TYR11      -0.0201
      7  CD1       -5.7640   -1.1360  -17.1310 C.ar   11  TYR11      -0.0009
      8  CD2       -6.5190   -3.3920  -16.8620 C.ar   11  TYR11      -0.0009
      9  CE1       -4.5760   -1.5920  -17.6810 C.ar   11  TYR11       0.0417
     10  CE2       -5.3310   -3.8630  -17.4140 C.ar   11  TYR11       0.0417
     11  CZ        -4.3660   -2.9550  -17.8190 C.ar   11  TYR11       0.1957
     12  OH        -3.1790   -3.3990  -18.3400 O.3    11  TYR11      -0.2866
     13  N         -8.4540   -5.3540  -19.8550 N.3    13  GLY13      -0.1210
     14  CA        -7.3510   -6.2760  -20.0520 C.3    13  GLY13       0.1956
     15  C         -7.7230   -7.3810  -21.0210 C.2    13  GLY13       0.2613
     16  O         -8.8390   -7.8950  -20.9880 O.2    13  GLY13      -0.2717
     17  N         -6.7920   -7.7620  -21.8860 N.am   14  SER14      -0.1938
     18  CA        -7.0930   -8.7970  -22.8600 C.3    14  SER14       0.2040
     19  C         -5.9220   -9.1560  -23.7510 C.2    14  SER14       0.2485
     20  O         -5.0550   -8.3230  -24.0180 O.2    14  SER14      -0.2729
     21  CB        -8.2550   -8.3380  -23.7480 C.3    14  SER14       0.2129
     22  OG        -8.2790   -9.0500  -24.9740 O.3    14  SER14      -0.2179
     23  N         -5.8730  -10.4140  -24.2140 N.am   15  PRO15      -0.2726
     24  CA        -4.7840  -10.8360  -25.0990 C.3    15  PRO15       0.1402
     25  C         -5.0190  -10.1020  -26.4190 C.2    15  PRO15       0.2269
     26  O         -6.1280   -9.6200  -26.6640 O.2    15  PRO15      -0.2865
     27  CB        -5.0070  -12.3420  -25.2310 C.3    15  PRO15       0.0296
     28  CG        -5.6890  -12.7030  -23.9530 C.3    15  PRO15       0.0237
     29  CD        -6.6700  -11.5730  -23.7800 C.3    15  PRO15       0.0939
     30  N         -3.3400  -11.2990  -29.6680 N.3    17  TYR17      -0.1241
     31  CA        -2.6120  -12.0610  -30.6810 C.3    17  TYR17       0.1605
     32  C         -3.5010  -12.4840  -31.8500 C.2    17  TYR17       0.2264
     33  O         -3.4490  -11.8860  -32.9280 O.2    17  TYR17      -0.2867
     34  CB        -1.9720  -13.2890  -30.0420 C.3    17  TYR17       0.0534
     35  CG        -1.0580  -12.9460  -28.8930 C.ar   17  TYR17      -0.0201
     36  CD1        0.1320  -12.2510  -29.1080 C.ar   17  TYR17      -0.0009
     37  CD2       -1.3970  -13.2920  -27.5850 C.ar   17  TYR17      -0.0009
     38  CE1        0.9610  -11.9030  -28.0480 C.ar   17  TYR17       0.0417
     39  CE2       -0.5750  -12.9520  -26.5180 C.ar   17  TYR17       0.0417
     40  CZ         0.6000  -12.2560  -26.7540 C.ar   17  TYR17       0.1957
     41  OH         1.4080  -11.9050  -25.6970 O.3    17  TYR17      -0.2866
     42  N         -4.5270   -1.1580  -22.9720 N.3    44  PRO44      -0.2102
     43  CA        -3.0640   -1.1920  -23.1020 C.3    44  PRO44       0.1504
     44  C         -2.4410   -1.3330  -24.4900 C.2    44  PRO44       0.2575
     45  O         -1.3400   -0.8310  -24.7210 O.2    44  PRO44      -0.2718
     46  CB        -2.6620   -2.3310  -22.1630 C.3    44  PRO44       0.0282
     47  CG        -3.8630   -3.2090  -22.1590 C.3    44  PRO44       0.0208
     48  CD        -4.9860   -2.2250  -22.0670 C.3    44  PRO44       0.0893
     49  N         -3.1240   -2.0010  -25.4130 N.am   45  PHE45      -0.1977
     50  CA        -2.5580   -2.1600  -26.7460 C.3    45  PHE45       0.1639
     51  C         -2.7680   -0.9670  -27.6690 C.2    45  PHE45       0.2290
     52  O         -2.3370   -0.9920  -28.8170 O.2    45  PHE45      -0.2864
     53  CB        -3.0690   -3.4400  -27.4080 C.3    45  PHE45       0.0560
     54  CG        -2.5690   -4.6930  -26.7500 C.ar   45  PHE45      -0.0200
     55  CD1       -3.3580   -5.3790  -25.8340 C.ar   45  PHE45      -0.0042
     56  CD2       -1.2930   -5.1730  -27.0270 C.ar   45  PHE45      -0.0042
     57  CE1       -2.8850   -6.5270  -25.2040 C.ar   45  PHE45      -0.0003
     58  CE2       -0.8090   -6.3190  -26.4030 C.ar   45  PHE45      -0.0003
     59  CZ        -1.6090   -6.9990  -25.4880 C.ar   45  PHE45      -0.0000
     60  N          7.2670   -7.1960  -32.2540 N.3    57  ILE57      -0.1245
     61  CA         6.4660   -7.8190  -31.2180 C.3    57  ILE57       0.1561
     62  C          6.9360   -9.2600  -31.1130 C.2    57  ILE57       0.2260
     63  O          6.9750   -9.9830  -32.1090 O.2    57  ILE57      -0.2867
     64  CB         4.9610   -7.7930  -31.5660 C.3    57  ILE57       0.0252
     65  CG1        4.4410   -6.3540  -31.5070 C.3    57  ILE57       0.0019
     66  CG2        4.1840   -8.6820  -30.6040 C.3    57  ILE57       0.0019
     67  CD1        2.9570   -6.2210  -31.7740 C.3    57  ILE57       0.0001
     68  N         13.3310   -6.7630  -26.7150 N.3    61  ARG61      -0.1245
     69  CA        13.0240   -5.3390  -26.5750 C.3    61  ARG61       0.1563
     70  C         13.9740   -4.6940  -25.5780 C.2    61  ARG61       0.2260
     71  O         14.5030   -5.3670  -24.6940 O.2    61  ARG61      -0.2867
     72  CB        11.5830   -5.1310  -26.0930 C.3    61  ARG61       0.0307
     73  CG        10.4960   -5.7780  -26.9520 C.3    61  ARG61       0.0489
     74  CD        10.6070   -5.3720  -28.4220 C.3    61  ARG61       0.2205
     75  NE        10.4580   -3.9330  -28.6320 N.pl3  61  ARG61      -0.0865
     76  CZ         9.2970   -3.3110  -28.8240 C.cat  61  ARG61       0.5346
     77  NH1        8.1610   -4.0050  -28.8350 N.pl3  61  ARG61       0.1354
     78  NH2        9.2730   -1.9960  -29.0070 N.pl3  61  ARG61       0.1354
     79  N         12.0520    0.3960  -23.0900 N.3    65  TRP65      -0.1241
     80  CA        10.7310    0.1600  -23.6620 C.3    65  TRP65       0.1605
     81  C          9.9180   -0.7440  -22.7340 C.2    65  TRP65       0.2264
     82  O          8.7340   -0.4930  -22.4900 O.2    65  TRP65      -0.2867
     83  CB        10.8420   -0.4950  -25.0410 C.3    65  TRP65       0.0550
     84  CG         9.5000   -0.7350  -25.6780 C.ar   65  TRP65       0.0003
     85  CD1        8.7910    0.1340  -26.4540 C.ar   65  TRP65       0.0946
     86  CD2        8.6750   -1.8910  -25.5170 C.ar   65  TRP65       0.0152
     87  NE1        7.5770   -0.4080  -26.7920 N.ar   65  TRP65      -0.2442
     88  CE2        7.4830   -1.6600  -26.2390 C.ar   65  TRP65       0.0810
     89  CE3        8.8330   -3.1140  -24.8490 C.ar   65  TRP65       0.0012
     90  CZ2        6.4420   -2.5910  -26.2880 C.ar   65  TRP65       0.0191
     91  CZ3        7.8040   -4.0400  -24.8950 C.ar   65  TRP65       0.0001
     92  CH2        6.6260   -3.7790  -25.6220 C.ar   65  TRP65       0.0015
     93  N          6.4890    0.5530  -20.9450 N.3    69  THR69      -0.1218
     94  CA         5.2670   -0.1200  -21.3470 C.3    69  THR69       0.1862
     95  C          4.5910   -0.8310  -20.1740 C.2    69  THR69       0.2287
     96  O          3.3740   -0.7580  -20.0140 O.2    69  THR69      -0.2866
     97  CB         5.5700   -1.1200  -22.4760 C.3    69  THR69       0.1770
     98  OG1        6.2900   -0.4390  -23.5140 O.3    69  THR69      -0.2211
     99  CG2        4.2820   -1.6990  -23.0490 C.3    69  THR69       0.0375
    100  N          0.9050    0.1950  -18.2010 N.3    73  ASP73      -0.1239
    101  CA        -0.1490   -0.7320  -17.8050 C.3    73  ASP73       0.1674
    102  C         -0.4590   -0.6250  -16.3100 C.2    73  ASP73       0.2266
    103  O         -1.6250   -0.6460  -15.9170 O.2    73  ASP73      -0.2867
    104  CB         0.2470   -2.1670  -18.1550 C.3    73  ASP73       0.1410
    105  CG         0.2430   -2.4230  -19.6540 C.2    73  ASP73       0.3668
    106  OD1       -0.2190   -1.5490  -20.4190 O.co2  73  ASP73      -0.2456
    107  OD2        0.6980   -3.5060  -20.0640 O.co2  73  ASP73      -0.2456
    108  N         -4.0190  -16.5400  -20.9220 N.3    93  ASP93      -0.1239
    109  CA        -3.1140  -15.3950  -20.9810 C.3    93  ASP93       0.1674
    110  C         -2.5810  -15.0840  -19.5750 C.2    93  ASP93       0.2266
    111  O         -3.3200  -14.5900  -18.7080 O.2    93  ASP93      -0.2867
    112  CB        -3.8640  -14.1780  -21.5230 C.3    93  ASP93       0.1410
    113  CG        -3.0110  -12.9240  -21.5440 C.2    93  ASP93       0.3668
    114  OD1       -3.5860  -11.8160  -21.5840 O.co2  93  ASP93      -0.2456
    115  OD2       -1.7700  -13.0390  -21.5300 O.co2  93  ASP93      -0.2456
    116  N         -0.5180  -12.8130  -18.7820 N.3    95  GLY95      -0.1210
    117  CA        -0.4080  -11.3830  -18.5790 C.3    95  GLY95       0.1956
    118  C         -1.6950  -10.8790  -17.9490 C.2    95  GLY95       0.2612
    119  O         -1.6710  -10.1010  -16.9860 O.2    95  GLY95      -0.2717
    120  N         -2.8240  -11.3290  -18.4950 N.am   96  SER96      -0.1952
    121  CA        -4.1310  -10.9260  -17.9920 C.3    96  SER96       0.1924
    122  C         -4.3340  -11.3900  -16.5570 C.2    96  SER96       0.2314
    123  O         -4.7960  -10.6240  -15.7150 O.2    96  SER96      -0.2863
    124  CB        -5.2460  -11.4780  -18.8900 C.3    96  SER96       0.2116
    125  OG        -5.2950  -10.7630  -20.1150 O.3    96  SER96      -0.2180
    126  N         -2.4610   -9.2980  -14.0490 N.3    99  GLU99      -0.1245
    127  CA        -3.1960   -8.0700  -13.8170 C.3    99  GLU99       0.1567
    128  C         -4.4060   -8.2400  -12.9170 C.2    99  GLU99       0.2260
    129  O         -4.7460   -7.3290  -12.1600 O.2    99  GLU99      -0.2867
    130  CB        -3.6130   -7.4620  -15.1500 C.3    99  GLU99       0.0388
    131  CG        -2.4240   -7.1970  -16.0380 C.3    99  GLU99       0.1160
    132  CD        -2.8140   -6.6570  -17.3830 C.2    99  GLU99       0.3649
    133  OE1       -3.6160   -7.3030  -18.0830 O.co2  99  GLU99      -0.2457
    134  OE2       -2.3100   -5.5760  -17.7350 O.co2  99  GLU99      -0.2457
@<TRIPOS>BOND
     1    33    32    2
     2    60    61    1
     3    63    62    2
     4    32    31    1
     5    67    65    1
     6    64    65    1
     7    64    61    1
     8    64    66    1
     9    61    62    1
    10    31    34    1
    11    31    30    1
    12    34    35    1
    13    36    35   ar
    14    36    38   ar
    15    78    76    1
    16    35    37   ar
    17    77    76    1
    18    76    75    2
    19    52    51    2
    20    75    74    1
    21    74    73    1
    22    38    40   ar
    23    51    50    1
    24    37    39   ar
    25    53    54    1
    26    53    50    1
    27    56    54   ar
    28    56    58   ar
    29    73    72    1
    30    87    85   ar
    31    87    88   ar
    32    40    39   ar
    33    40    41    1
    34    54    55   ar
    35    50    49    1
    36    68    69    1
    37    26    25    2
    38    69    72    1
    39    69    70    1
    40    85    84   ar
    41    25    24    1
    42    58    59   ar
    43    90    88   ar
    44    90    92   ar
    45    88    86   ar
    46    55    57   ar
    47    84    86   ar
    48    84    83    1
    49    92    91   ar
    50    70    71    2
    51    86    89   ar
    52    59    57   ar
    53    49    44   am
    54    27    24    1
    55    27    28    1
    56    24    23    1
    57    83    80    1
    58    22    21    1
    59    91    89   ar
    60    45    44    2
    61    44    43    1
    62    23    29    1
    63    23    19   am
    64    20    19    2
    65    28    29    1
    66    19    18    1
    67    21    18    1
    68    80    79    1
    69    80    81    1
    70    98    97    1
    71    43    42    1
    72    43    46    1
    73    99    97    1
    74    42    48    1
    75    18    17    1
    76    81    82    2
    77    97    94    1
    78    46    47    1
    79    47    48    1
    80    17    15   am
    81   114   113   ar
    82   113   115   ar
    83   113   112    1
    84   112   109    1
    85    94    93    1
    86    94    95    1
    87    15    16    2
    88    15    14    1
    89   109   108    1
    90   109   110    1
    91   106   105   ar
    92    95    96    2
    93   125   124    1
    94   107   105   ar
    95    14    13    1
    96   105   104    1
    97   110   111    2
    98   124   121    1
    99   116   117    1
   100   117   118    1
   101   120   121    1
   102   120   118   am
   103    12    11    1
   104   100   101    1
   105   104   101    1
   106     3     4    2
   107     3     2    1
   108   133   132   ar
   109   121   122    1
   110   118   119    2
   111    11     9   ar
   112    11    10   ar
   113   101   102    1
   114   134   132   ar
   115     9     7   ar
   116    10     8   ar
   117   132   131    1
   118     2     1    1
   119     2     5    1
   120     7     6   ar
   121     8     6   ar
   122     6     5    1
   123   122   123    2
   124   102   103    2
   125   131   130    1
   126   130   127    1
   127   126   127    1
   128   127   128    1
   129   128   129    2
