@<TRIPOS>MOLECULE
tmp/1s3uA00.pdb
 166 159 0 0 0
SMALL
GASTEIGER

@<TRIPOS>ATOM
      1  N         20.8960   11.8560   -2.7640 N.3     7  ILE7       -0.1231
      2  CA        21.9960   12.0310   -3.7570 C.3     7  ILE7        0.1692
      3  C         23.1390   11.1690   -3.1730 C.2     7  ILE7        0.2592
      4  O         23.3510   11.1890   -1.9210 O.2     7  ILE7       -0.2718
      5  CB        22.1730   13.5100   -4.1510 C.3     7  ILE7        0.0266
      6  CG1       23.4600   13.6640   -5.0090 C.3     7  ILE7        0.0019
      7  CG2       22.1790   14.4940   -2.9680 C.3     7  ILE7        0.0020
      8  CD1       23.4940   14.8110   -6.0410 C.3     7  ILE7        0.0001
      9  N         23.7290   10.3780   -4.0610 N.am    8  VAL8       -0.1966
     10  CA        24.8130    9.4560   -3.7350 C.3     8  VAL8        0.1727
     11  C         25.7430    9.1280   -4.9220 C.2     8  VAL8        0.2616
     12  O         25.3760    9.1130   -6.0950 O.2     8  VAL8       -0.2715
     13  CB        24.1560    8.1230   -3.2220 C.3     8  VAL8        0.0290
     14  CG1       23.6150    7.2870   -4.3760 C.3     8  VAL8        0.0023
     15  CG2       24.9960    7.2380   -2.3380 C.3     8  VAL8        0.0023
     16  N         26.9770    8.7950   -4.5590 N.am    9  ALA9       -0.1977
     17  CA        28.0550    8.3480   -5.4590 C.3     9  ALA9        0.1597
     18  C         28.2930    6.9480   -4.9170 C.2     9  ALA9        0.2287
     19  O         28.4910    6.8380   -3.6790 O.2     9  ALA9       -0.2864
     20  CB        29.1850    9.3440   -5.4060 C.3     9  ALA9        0.0319
     21  N         35.2560    6.8220    6.7510 N.3    20  GLY20      -0.1210
     22  CA        34.7570    8.2110    6.7380 C.3    20  GLY20       0.1956
     23  C         35.3200    8.9410    5.5340 C.2    20  GLY20       0.2612
     24  O         35.0900   10.1710    5.3620 O.2    20  GLY20      -0.2717
     25  N         36.0530    8.2550    4.7060 N.am   21  ASP21      -0.1959
     26  CA        36.5920    8.9410    3.4820 C.3    21  ASP21       0.1840
     27  C         35.8430    8.3290    2.2870 C.2    21  ASP21       0.2621
     28  O         35.1790    7.2590    2.4570 O.2    21  ASP21      -0.2715
     29  CB        38.0780    8.7640    3.6050 C.3    21  ASP21       0.1450
     30  CG        38.9850    9.4910    2.6180 C.2    21  ASP21       0.3671
     31  OD1       38.6330   10.4960    1.9710 O.co2  21  ASP21      -0.2456
     32  OD2       40.1480    9.0410    2.4710 O.co2  21  ASP21      -0.2456
     33  N         35.8830    8.9270    1.1280 N.am   22  LEU22      -0.1977
     34  CA        35.2660    8.3260   -0.0970 C.3    22  LEU22       0.1596
     35  C         36.2300    7.2070   -0.5910 C.2    22  LEU22       0.2287
     36  O         37.4530    7.4060   -0.5340 O.2    22  LEU22      -0.2864
     37  CB        35.2100    9.2980   -1.2360 C.3    22  LEU22       0.0297
     38  CG        34.5470   10.6280   -1.3090 C.3    22  LEU22       0.0022
     39  CD1       34.9400   11.1790   -2.6910 C.3    22  LEU22       0.0001
     40  CD2       33.0540   10.5250   -1.1500 C.3    22  LEU22       0.0001
     41  N         39.4200   12.1540   -5.2330 N.3    26  PRO26      -0.2116
     42  CA        38.4640   13.2740   -5.3620 C.3    26  PRO26       0.1372
     43  C         38.1560   13.4200   -6.8140 C.2    26  PRO26       0.2244
     44  O         39.1360   13.2420   -7.6000 O.2    26  PRO26      -0.2868
     45  CB        39.2180   14.4290   -4.7150 C.3    26  PRO26       0.0268
     46  CG        40.2200   13.7990   -3.7980 C.3    26  PRO26       0.0207
     47  CD        40.6650   12.5540   -4.5480 C.3    26  PRO26       0.0892
     48  N         32.4410   15.6550  -10.0420 N.3    30  GLU30      -0.1231
     49  CA        31.4270   14.8810   -9.2820 C.3    30  GLU30       0.1699
     50  C         30.9670   15.8300   -8.1720 C.2    30  GLU30       0.2592
     51  O         29.7910   15.9930   -7.8840 O.2    30  GLU30      -0.2718
     52  CB        31.9410   13.5500   -8.7910 C.3    30  GLU30       0.0402
     53  CG        30.8280   12.5040   -8.7190 C.3    30  GLU30       0.1161
     54  CD        29.8280   12.8120   -7.6570 C.2    30  GLU30       0.3649
     55  OE1       28.6270   12.7570   -7.8350 O.co2  30  GLU30      -0.2457
     56  OE2       30.3190   13.0890   -6.5310 O.co2  30  GLU30      -0.2457
     57  N         31.8960   16.5570   -7.5930 N.am   31  PHE31      -0.1976
     58  CA        31.7010   17.5410   -6.5450 C.3    31  PHE31       0.1639
     59  C         30.8660   18.7080   -7.0100 C.2    31  PHE31       0.2290
     60  O         30.0090   19.0970   -6.2200 O.2    31  PHE31      -0.2864
     61  CB        32.9710   18.1120   -5.8660 C.3    31  PHE31       0.0560
     62  CG        33.5110   17.0890   -4.9080 C.ar   31  PHE31      -0.0200
     63  CD1       32.6900   16.5970   -3.8910 C.ar   31  PHE31      -0.0042
     64  CD2       34.8280   16.6640   -5.0120 C.ar   31  PHE31      -0.0042
     65  CE1       33.1890   15.6670   -2.9940 C.ar   31  PHE31      -0.0003
     66  CE2       35.3370   15.7060   -4.1220 C.ar   31  PHE31      -0.0003
     67  CZ        34.4910   15.2010   -3.1170 C.ar   31  PHE31      -0.0000
     68  N         27.2510   17.5830   -7.4240 N.3    34  PHE34      -0.1227
     69  CA        26.7080   17.3730   -6.0670 C.3    34  PHE34       0.1736
     70  C         26.3780   18.7700   -5.5150 C.2    34  PHE34       0.2595
     71  O         25.2470   18.8880   -5.0440 O.2    34  PHE34      -0.2718
     72  CB        27.6160   16.6550   -5.0790 C.3    34  PHE34       0.0547
     73  CG        27.3030   16.9450   -3.6340 C.ar   34  PHE34      -0.0202
     74  CD1       26.4040   16.0960   -2.9450 C.ar   34  PHE34      -0.0042
     75  CD2       27.8650   18.0220   -2.9710 C.ar   34  PHE34      -0.0042
     76  CE1       26.0530   16.3230   -1.6180 C.ar   34  PHE34      -0.0003
     77  CE2       27.5160   18.2630   -1.6120 C.ar   34  PHE34      -0.0003
     78  CZ        26.6130   17.3920   -0.9520 C.ar   34  PHE34      -0.0000
     79  N         27.2180   19.7680   -5.5980 N.am   35  GLN35      -0.1979
     80  CA        26.9800   21.1470   -5.1650 C.3    35  GLN35       0.1601
     81  C         25.9000   21.8510   -5.9680 C.2    35  GLN35       0.2287
     82  O         24.9220   22.4770   -5.5030 O.2    35  GLN35      -0.2864
     83  CB        28.3450   21.8110   -5.2030 C.3    35  GLN35       0.0394
     84  CG        29.3180   21.1680   -4.2230 C.3    35  GLN35       0.0908
     85  CD        29.6590   21.8840   -2.9520 C.2    35  GLN35       0.2608
     86  OE1       28.8640   21.9530   -1.9760 O.2    35  GLN35      -0.2717
     87  NE2       30.8640   22.4560   -2.8420 N.am   35  GLN35      -0.0878
     88  N         28.4940   11.4890    8.1440 N.3    56  THR56      -0.1218
     89  CA        28.5970   12.2340    6.9040 C.3    56  THR56       0.1862
     90  C         29.0520   13.6500    7.1620 C.2    56  THR56       0.2287
     91  O         30.0120   14.1220    6.4860 O.2    56  THR56      -0.2866
     92  CB        27.3070   12.1550    6.0050 C.3    56  THR56       0.1770
     93  OG1       27.3060   10.7380    5.6300 O.3    56  THR56      -0.2211
     94  CG2       27.4190   12.9500    4.6930 C.3    56  THR56       0.0375
     95  N         32.5240   13.7930    7.8420 N.3    59  SER59      -0.1202
     96  CA        33.3480   13.3270    6.7230 C.3    59  SER59       0.2020
     97  C         33.6940   14.4320    5.7360 C.2    59  SER59       0.2619
     98  O         34.5560   14.1650    4.8980 O.2    59  SER59      -0.2717
     99  CB        32.5910   12.2240    5.9620 C.3    59  SER59       0.2103
    100  OG        31.4770   12.8340    5.3100 O.3    59  SER59      -0.2182
    101  N         33.1520   15.6130    5.7470 N.am   60  ILE60      -0.1966
    102  CA        33.3780   16.7440    4.8600 C.3    60  ILE60       0.1712
    103  C         34.4560   17.6340    5.4300 C.2    60  ILE60       0.2458
    104  O         34.4320   17.8830    6.6580 O.2    60  ILE60      -0.2730
    105  CB        32.0050   17.5350    4.7880 C.3    60  ILE60       0.0289
    106  CG1       30.8500   16.6840    4.2080 C.3    60  ILE60       0.0022
    107  CG2       32.0620   18.8860    4.0450 C.3    60  ILE60       0.0023
    108  CD1       29.4230   17.1930    4.5630 C.3    60  ILE60       0.0001
    109  N         35.3710   18.1580    4.6590 N.am   61  PRO61      -0.2727
    110  CA        36.4270   19.0060    5.2100 C.3    61  PRO61       0.1402
    111  C         35.6550   20.1750    5.8140 C.2    61  PRO61       0.2269
    112  O         34.6700   20.6120    5.2340 O.2    61  PRO61      -0.2865
    113  CB        37.3050   19.3730    4.0500 C.3    61  PRO61       0.0296
    114  CG        37.0850   18.2850    3.0640 C.3    61  PRO61       0.0237
    115  CD        35.6490   17.7710    3.2770 C.3    61  PRO61       0.0939
    116  N         36.5030   23.1120    6.1430 N.3    63  LYS63      -0.1231
    117  CA        36.5950   24.2600    5.2360 C.3    63  LYS63       0.1693
    118  C         35.2990   24.3860    4.4420 C.2    63  LYS63       0.2592
    119  O         34.8900   25.4900    4.0640 O.2    63  LYS63      -0.2718
    120  CB        37.7580   24.0820    4.2580 C.3    63  LYS63       0.0285
    121  CG        37.3000   23.7490    2.8340 C.3    63  LYS63       0.0035
    122  CD        37.3080   24.9580    1.8930 C.3    63  LYS63       0.0206
    123  CE        38.3030   24.8140    0.7380 C.3    63  LYS63       0.1093
    124  NZ        37.8910   23.8120   -0.2570 N.3    63  LYS63      -0.1314
    125  N         34.6810   23.2050    4.3190 N.am   64  ASN64      -0.1974
    126  CA        33.4580   23.0850    3.5250 C.3    64  ASN64       0.1688
    127  C         32.1820   22.8960    4.3020 C.2    64  ASN64       0.2292
    128  O         31.1430   22.6440    3.6600 O.2    64  ASN64      -0.2864
    129  CB        33.6100   21.9030    2.5470 C.3    64  ASN64       0.1181
    130  CG        34.8260   21.9500    1.6600 C.2    64  ASN64       0.2629
    131  OD1       35.1030   22.8370    0.8770 O.2    64  ASN64      -0.2716
    132  ND2       35.6950   20.9410    1.7730 N.am   64  ASN64      -0.0877
    133  N         27.5950   23.2660    4.3320 N.3    67  LEU67      -0.1301
    134  CA        27.5600   23.3500    2.8440 C.3    67  LEU67       0.1247
    135  C         26.9530   24.7200    2.6190 C.3    67  LEU67       0.2009
    136  O         25.7980   24.8110    3.1050 O.3    67  LEU67      -0.2188
    137  CB        26.7770   22.1910    2.2620 C.3    67  LEU67       0.0217
    138  CG        27.2500   20.8050    2.7180 C.3    67  LEU67       0.0015
    139  CD1       26.2480   19.7520    2.3170 C.3    67  LEU67       0.0000
    140  CD2       28.5910   20.6710    2.0540 C.3    67  LEU67       0.0000
    141  N         22.1460   13.6000    1.8840 N.3   115  VAL115     -0.1245
    142  CA        23.5210   13.3890    1.4690 C.3   115  VAL115      0.1561
    143  C         24.2440   12.2370    2.1910 C.2   115  VAL115      0.2260
    144  O         25.4700   12.0340    1.9580 O.2   115  VAL115     -0.2867
    145  CB        24.3410   14.6710    1.4860 C.3   115  VAL115      0.0252
    146  CG1       23.6260   15.8340    0.7730 C.3   115  VAL115      0.0019
    147  CG2       24.7160   15.2720    2.8390 C.3   115  VAL115      0.0019
    148  N         20.0090    6.9770    4.3330 N.3   121  TYR121     -0.1241
    149  CA        19.4480    6.6090    3.0150 C.3   121  TYR121      0.1605
    150  C         18.3370    5.6130    3.3140 C.2   121  TYR121      0.2264
    151  O         17.2570    5.7900    2.8060 O.2   121  TYR121     -0.2867
    152  CB        20.4330    6.0210    2.0040 C.3   121  TYR121      0.0534
    153  CG        21.5700    6.8620    1.5210 C.ar  121  TYR121     -0.0201
    154  CD1       22.9120    6.4850    1.6530 C.ar  121  TYR121     -0.0009
    155  CD2       21.3040    8.1110    0.9580 C.ar  121  TYR121     -0.0009
    156  CE1       23.9370    7.3250    1.2270 C.ar  121  TYR121      0.0417
    157  CE2       22.2940    8.9520    0.5030 C.ar  121  TYR121      0.0417
    158  CZ        23.6190    8.5450    0.6450 C.ar  121  TYR121      0.1957
    159  OH        24.5510    9.3990    0.1390 O.3   121  TYR121     -0.2866
    160  N         25.1840    8.5270   -8.6410 N.3   136  THR136     -0.1218
    161  CA        26.3510    8.7360   -9.5050 C.3   136  THR136      0.1862
    162  C         27.0100    7.3500   -9.5090 C.2   136  THR136      0.2287
    163  O         27.3640    6.9200   -8.4200 O.2   136  THR136     -0.2866
    164  CB        27.4340    9.8130   -9.1590 C.3   136  THR136      0.1770
    165  OG1       26.6770   11.0720   -9.1260 O.3   136  THR136     -0.2211
    166  CG2       28.6060    9.7950  -10.1640 C.3   136  THR136      0.0375
@<TRIPOS>BOND
     1   166   164    1
     2    48    49    1
     3   162   161    1
     4   162   163    2
     5   161   164    1
     6   161   160    1
     7    49    52    1
     8    49    50    1
     9   164   165    1
    10    52    53    1
    11    53    54    1
    12    50    51    2
    13    50    57   am
    14    55    54   ar
    15    54    56   ar
    16    44    43    2
    17    57    58    1
    18    68    69    1
    19    59    58    1
    20    59    60    2
    21    43    42    1
    22    58    61    1
    23    12    11    2
    24    69    70    1
    25    69    72    1
    26     8     6    1
    27    81    82    2
    28    81    80    1
    29    61    62    1
    30    79    70   am
    31    79    80    1
    32    70    71    2
    33    17    20    1
    34    17    18    1
    35    17    16    1
    36    42    41    1
    37    42    45    1
    38    41    47    1
    39    83    80    1
    40    83    84    1
    41    72    73    1
    42    64    62   ar
    43    64    66   ar
    44     6     5    1
    45    11    16   am
    46    11    10    1
    47    18    19    2
    48    62    63   ar
    49    45    46    1
    50    47    46    1
    51    14    13    1
    52    84    85    1
    53     5     2    1
    54     5     7    1
    55    66    67   ar
    56     9    10    1
    57     9     3   am
    58    63    65   ar
    59     2     3    1
    60     2     1    1
    61    10    13    1
    62    73    75   ar
    63    73    74   ar
    64    13    15    1
    65     3     4    2
    66    67    65   ar
    67    75    77   ar
    68    85    87   am
    69    85    86    2
    70    74    76   ar
    71    39    38    1
    72    76    78   ar
    73    77    78   ar
    74    38    37    1
    75    38    40    1
    76    37    34    1
    77    35    36    2
    78    35    34    1
    79   124   123    1
    80    34    33    1
    81   159   158    1
    82   157   158   ar
    83   157   155   ar
    84   158   156   ar
    85   123   122    1
    86   146   145    1
    87   131   130    2
    88   155   153   ar
    89    33    27   am
    90   156   154   ar
    91   142   145    1
    92   142   141    1
    93   142   143    1
    94   145   147    1
    95   153   154   ar
    96   153   152    1
    97   130   132   am
    98   130   129    1
    99   122   121    1
   100   144   143    2
   101    31    30   ar
   102   152   149    1
   103   140   138    1
   104   137   138    1
   105   137   134    1
   106    27    28    2
   107    27    26    1
   108   139   138    1
   109    32    30   ar
   110   129   126    1
   111    30    29    1
   112   135   134    1
   113   135   136    1
   114   151   150    2
   115   121   120    1
   116   134   133    1
   117   149   150    1
   118   149   148    1
   119   114   115    1
   120   114   113    1
   121   115   109    1
   122    26    29    1
   123    26    25    1
   124   126   127    1
   125   126   125    1
   126   128   127    2
   127   107   105    1
   128   113   110    1
   129   119   118    2
   130   106   108    1
   131   106   105    1
   132   120   117    1
   133   125   118   am
   134   118   117    1
   135   109   110    1
   136   109   103   am
   137    94    92    1
   138    25    23   am
   139   105   102    1
   140   102   103    1
   141   102   101    1
   142    98    97    2
   143   110   111    1
   144   112   111    2
   145   117   116    1
   146   100    99    1
   147    24    23    2
   148   103   104    2
   149    23    22    1
   150    93    92    1
   151    97   101   am
   152    97    96    1
   153    99    96    1
   154    92    89    1
   155    91    90    2
   156    96    95    1
   157    22    21    1
   158    89    90    1
   159    89    88    1
