@<TRIPOS>MOLECULE
tmp/1s3wA01.pdb
 93 88 0 0 0
SMALL
GASTEIGER

@<TRIPOS>ATOM
      1  N         36.4770    7.2860    6.5960 N.3    20  GLY20      -0.1210
      2  CA        35.9760    8.6450    6.7230 C.3    20  GLY20       0.1956
      3  C         36.1600    9.5180    5.5030 C.2    20  GLY20       0.2612
      4  O         36.1120   10.7590    5.6050 O.2    20  GLY20      -0.2717
      5  N         36.4210    8.8590    4.4110 N.am   21  ASP21      -0.1959
      6  CA        36.6370    9.6530    3.1420 C.3    21  ASP21       0.1840
      7  C         36.0390    8.8580    1.9920 C.2    21  ASP21       0.2621
      8  O         35.3730    7.8360    2.1870 O.2    21  ASP21      -0.2715
      9  CB        38.0610   10.0250    3.0690 C.3    21  ASP21       0.1450
     10  CG        38.4590   11.1300    2.1290 C.2    21  ASP21       0.3671
     11  OD1       37.6950   11.7930    1.4300 O.co2  21  ASP21      -0.2456
     12  OD2       39.7040   11.3850    2.2160 O.co2  21  ASP21      -0.2456
     13  N         36.1740    9.4490    0.7810 N.am   22  LEU22      -0.1977
     14  CA        35.5710    8.7690   -0.3930 C.3    22  LEU22       0.1596
     15  C         36.4630    7.6680   -0.8990 C.2    22  LEU22       0.2287
     16  O         37.6840    7.8280   -0.7270 O.2    22  LEU22      -0.2864
     17  CB        35.4430    9.9150   -1.4320 C.3    22  LEU22       0.0297
     18  CG        34.1480   10.6530   -1.5760 C.3    22  LEU22       0.0022
     19  CD1       33.1870   10.6740   -0.4140 C.3    22  LEU22       0.0001
     20  CD2       34.5010   12.1290   -1.8270 C.3    22  LEU22       0.0001
     21  N         32.0010   16.6720   -7.7300 N.3    31  PHE31      -0.1241
     22  CA        31.7650   17.5700   -6.5470 C.3    31  PHE31       0.1605
     23  C         31.0300   18.7960   -7.0330 C.2    31  PHE31       0.2264
     24  O         30.1070   19.1940   -6.3420 O.2    31  PHE31      -0.2867
     25  CB        33.0420   18.1050   -5.8820 C.3    31  PHE31       0.0534
     26  CG        32.6570   18.5950   -4.5130 C.ar   31  PHE31      -0.0203
     27  CD1       31.8760   17.7400   -3.7200 C.ar   31  PHE31      -0.0042
     28  CD2       32.9760   19.8560   -4.0460 C.ar   31  PHE31      -0.0042
     29  CE1       31.4980   18.1160   -2.4320 C.ar   31  PHE31      -0.0003
     30  CE2       32.6250   20.2420   -2.7660 C.ar   31  PHE31      -0.0003
     31  CZ        31.8360   19.3400   -1.9460 C.ar   31  PHE31      -0.0000
     32  N         27.2790   17.8430   -7.4720 N.3    34  PHE34      -0.1241
     33  CA        26.7040   17.7030   -6.0850 C.3    34  PHE34       0.1605
     34  C         26.4010   19.0850   -5.5140 C.2    34  PHE34       0.2264
     35  O         25.3140   19.2400   -5.0090 O.2    34  PHE34      -0.2867
     36  CB        27.7050   16.9230   -5.2220 C.3    34  PHE34       0.0534
     37  CG        27.3450   17.0350   -3.7390 C.ar   34  PHE34      -0.0203
     38  CD1       26.2840   16.2840   -3.2360 C.ar   34  PHE34      -0.0042
     39  CD2       28.0700   17.9250   -2.9490 C.ar   34  PHE34      -0.0042
     40  CE1       25.9270   16.4580   -1.8870 C.ar   34  PHE34      -0.0003
     41  CE2       27.6890   18.0660   -1.5870 C.ar   34  PHE34      -0.0003
     42  CZ        26.6600   17.2920   -1.0950 C.ar   34  PHE34      -0.0000
     43  N         29.1190   11.6900    8.2890 N.3    56  THR56      -0.1218
     44  CA        29.2450   12.4800    7.0180 C.3    56  THR56       0.1862
     45  C         29.7040   13.8810    7.2770 C.2    56  THR56       0.2287
     46  O         30.6020   14.3650    6.5640 O.2    56  THR56      -0.2866
     47  CB        27.9500   12.4250    6.1550 C.3    56  THR56       0.1770
     48  OG1       27.8960   10.9820    5.8330 O.3    56  THR56      -0.2211
     49  CG2       27.9440   13.3590    4.9370 C.3    56  THR56       0.0375
     50  N         33.5250   14.0620    7.9180 N.3    59  SER59      -0.1202
     51  CA        34.3140   13.6680    6.7960 C.3    59  SER59       0.2020
     52  C         34.4210   14.8180    5.7780 C.2    59  SER59       0.2619
     53  O         35.2660   14.7540    4.8810 O.2    59  SER59      -0.2717
     54  CB        33.7160   12.3760    6.2790 C.3    59  SER59       0.2103
     55  OG        32.5300   12.6920    5.5490 O.3    59  SER59      -0.2182
     56  N         33.6320   15.8580    5.8530 N.am   60  ILE60      -0.1966
     57  CA        33.6880   17.0110    4.9090 C.3    60  ILE60       0.1712
     58  C         34.8250   17.8870    5.4270 C.2    60  ILE60       0.2458
     59  O         34.7650   18.0980    6.6130 O.2    60  ILE60      -0.2730
     60  CB        32.3690   17.8120    4.8720 C.3    60  ILE60       0.0289
     61  CG1       31.2170   16.8420    4.5200 C.3    60  ILE60       0.0022
     62  CG2       32.4540   19.1450    4.0710 C.3    60  ILE60       0.0023
     63  CD1       29.8030   17.4990    4.4810 C.3    60  ILE60       0.0001
     64  N         35.7080   18.3110    4.5730 N.am   61  PRO61      -0.2727
     65  CA        36.8430   19.1600    4.9800 C.3    61  PRO61       0.1402
     66  C         36.1850   20.3620    5.6370 C.2    61  PRO61       0.2269
     67  O         35.1490   20.8940    5.1800 O.2    61  PRO61      -0.2865
     68  CB        37.6160   19.4200    3.6600 C.3    61  PRO61       0.0296
     69  CG        37.1570   18.3510    2.7480 C.3    61  PRO61       0.0237
     70  CD        35.7110   17.9940    3.1270 C.3    61  PRO61       0.0939
     71  N         35.1940   23.3760    3.9470 N.3    64  ASN64      -0.1240
     72  CA        33.9070   23.1850    3.2260 C.3    64  ASN64       0.1653
     73  C         32.6930   23.0380    4.1130 C.2    64  ASN64       0.2266
     74  O         31.6640   22.6180    3.5510 O.2    64  ASN64      -0.2867
     75  CB        34.0370   21.8870    2.4030 C.3    64  ASN64       0.1155
     76  CG        35.0780   22.1180    1.2980 C.2    64  ASN64       0.2627
     77  OD1       34.9900   23.1500    0.6090 O.2    64  ASN64      -0.2716
     78  ND2       36.0480   21.2540    1.1070 N.am   64  ASN64      -0.0877
     79  N         28.0550   23.5230    4.3950 N.3    67  LEU67      -0.1245
     80  CA        27.7890   23.5630    2.9180 C.3    67  LEU67       0.1561
     81  C         27.0290   24.8700    2.7370 C.2    67  LEU67       0.2260
     82  O         25.9100   25.0040    3.2860 O.2    67  LEU67      -0.2867
     83  CB        27.0650   22.2530    2.5700 C.3    67  LEU67       0.0270
     84  CG        27.7660   20.9740    2.6250 C.3    67  LEU67       0.0019
     85  CD1       26.8030   19.8780    2.1480 C.3    67  LEU67       0.0001
     86  CD2       29.0380   20.8840    1.7900 C.3    67  LEU67       0.0001
     87  N         22.1990   13.7000    1.9810 N.3   115  VAL115     -0.1301
     88  CA        23.5030   13.6120    1.4100 C.3   115  VAL115      0.1246
     89  C         24.2930   12.4710    2.0360 C.3   115  VAL115      0.2009
     90  O         25.4660   12.4080    1.6630 O.3   115  VAL115     -0.2188
     91  CB        24.2360   14.9440    1.3630 C.3   115  VAL115      0.0202
     92  CG1       23.4310   16.1060    0.7010 C.3   115  VAL115      0.0016
     93  CG2       24.7160   15.3100    2.7400 C.3   115  VAL115      0.0016
@<TRIPOS>BOND
     1    21    22    1
     2    32    33    1
     3    23    22    1
     4    23    24    2
     5    22    25    1
     6    33    34    1
     7    33    36    1
     8    25    26    1
     9    34    35    2
    10    36    37    1
    11    26    28   ar
    12    26    27   ar
    13    28    30   ar
    14    37    38   ar
    15    37    39   ar
    16    27    29   ar
    17    38    40   ar
    18    39    41   ar
    19    30    31   ar
    20    29    31   ar
    21    40    42   ar
    22    20    18    1
    23    41    42   ar
    24    18    17    1
    25    18    19    1
    26    17    14    1
    27    15    16    2
    28    15    14    1
    29    14    13    1
    30    77    76    2
    31    92    91    1
    32    13     7   am
    33    78    76   am
    34    76    75    1
    35    91    88    1
    36    91    93    1
    37    88    87    1
    38    88    89    1
    39    11    10   ar
    40    90    89    1
    41    86    84    1
    42     7     8    2
    43     7     6    1
    44    10    12   ar
    45    10     9    1
    46    85    84    1
    47    75    72    1
    48    83    84    1
    49    83    80    1
    50    81    80    1
    51    81    82    2
    52    69    70    1
    53    69    68    1
    54    80    79    1
    55     9     6    1
    56    70    64    1
    57     6     5    1
    58    72    71    1
    59    72    73    1
    60    74    73    2
    61    68    65    1
    62    62    60    1
    63     5     3   am
    64    63    61    1
    65    61    60    1
    66    64    65    1
    67    64    58   am
    68    60    57    1
    69    53    52    2
    70    57    58    1
    71    57    56    1
    72    49    47    1
    73    65    66    1
    74    67    66    2
    75    58    59    2
    76     3     4    2
    77     3     2    1
    78    55    54    1
    79    52    56   am
    80    52    51    1
    81    48    47    1
    82    47    44    1
    83    54    51    1
    84    46    45    2
    85     1     2    1
    86    51    50    1
    87    44    45    1
    88    44    43    1
