@<TRIPOS>MOLECULE
tmp/1s3yA01.pdb
 169 164 0 0 0
SMALL
GASTEIGER

@<TRIPOS>ATOM
      1  N          5.5270    4.8520   16.9360 N.3    10  ILE10      -0.1231
      2  CA         6.0140    4.1310   15.7590 C.3    10  ILE10       0.1692
      3  C          7.4540    3.8250   16.1020 C.2    10  ILE10       0.2592
      4  O          8.1730    4.7000   16.5940 O.2    10  ILE10      -0.2718
      5  CB         5.8690    4.9660   14.4400 C.3    10  ILE10       0.0266
      6  CG1        6.4320    4.1770   13.2600 C.3    10  ILE10       0.0019
      7  CG2        6.6080    6.2930   14.5270 C.3    10  ILE10       0.0020
      8  CD1        5.9720    4.7310   11.9340 C.3    10  ILE10       0.0001
      9  N          7.8720    2.5830   15.8770 N.am   11  VAL11      -0.1966
     10  CA         9.2110    2.1650   16.2640 C.3    11  VAL11       0.1727
     11  C          9.6500    0.9100   15.4980 C.2    11  VAL11       0.2616
     12  O          8.8150    0.1570   14.9940 O.2    11  VAL11      -0.2715
     13  CB         9.2210    1.8700   17.8220 C.3    11  VAL11       0.0290
     14  CG1        8.2340    0.7680   18.1530 C.3    11  VAL11       0.0023
     15  CG2       10.5940    1.4910   18.3130 C.3    11  VAL11       0.0023
     16  N         10.9650    0.6970   15.4290 N.am   12  ALA12      -0.1977
     17  CA        11.5480   -0.4710   14.7750 C.3    12  ALA12       0.1597
     18  C         12.3940   -1.1140   15.8730 C.2    12  ALA12       0.2287
     19  O         13.2210   -0.4410   16.4830 O.2    12  ALA12      -0.2864
     20  CB        12.4340   -0.0390   13.5930 C.3    12  ALA12       0.0319
     21  N         23.4540    2.2540   15.0280 N.3    25  LEU25      -0.1245
     22  CA        22.2080    1.9690   14.2940 C.3    25  LEU25       0.1561
     23  C         22.4220    0.6590   13.5570 C.2    25  LEU25       0.2260
     24  O         22.6650    0.6700   12.3470 O.2    25  LEU25      -0.2867
     25  CB        21.8790    3.1160   13.3050 C.3    25  LEU25       0.0270
     26  CG        20.6210    2.9230   12.4480 C.3    25  LEU25       0.0019
     27  CD1       19.5200    2.2890   13.2600 C.3    25  LEU25       0.0001
     28  CD2       20.1870    4.2760   11.9120 C.3    25  LEU25       0.0001
     29  N         21.3550   -1.6050   11.6870 N.3    27  TRP27      -0.1241
     30  CA        20.8600   -2.1520   10.4270 C.3    27  TRP27       0.1605
     31  C         20.6170   -1.1630    9.2870 C.2    27  TRP27       0.2264
     32  O         20.3340    0.0200    9.5130 O.2    27  TRP27      -0.2867
     33  CB        19.5790   -2.9280   10.6980 C.3    27  TRP27       0.0550
     34  CG        18.6450   -2.1250   11.5290 C.ar   27  TRP27       0.0003
     35  CD1       17.9480   -1.0160   11.1410 C.ar   27  TRP27       0.0946
     36  CD2       18.3640   -2.3150   12.9180 C.ar   27  TRP27       0.0152
     37  NE1       17.2490   -0.4990   12.2090 N.ar   27  TRP27      -0.2442
     38  CE2       17.4870   -1.2770   13.3130 C.ar   27  TRP27       0.0810
     39  CE3       18.7690   -3.2590   13.8680 C.ar   27  TRP27       0.0012
     40  CZ2       17.0090   -1.1600   14.6230 C.ar   27  TRP27       0.0191
     41  CZ3       18.2960   -3.1440   15.1660 C.ar   27  TRP27       0.0001
     42  CH2       17.4240   -2.1000   15.5320 C.ar   27  TRP27       0.0015
     43  N         12.4300    0.2410    5.1080 N.3    32  GLU32      -0.1231
     44  CA        11.7950    0.4980    6.3920 C.3    32  GLU32       0.1699
     45  C         11.5280    2.0020    6.5110 C.2    32  GLU32       0.2592
     46  O         10.3960    2.4230    6.8050 O.2    32  GLU32      -0.2718
     47  CB        12.7030   -0.0090    7.5170 C.3    32  GLU32       0.0402
     48  CG        11.9300   -0.5160    8.7460 C.3    32  GLU32       0.1161
     49  CD        11.2610    0.6010    9.5000 C.2    32  GLU32       0.3649
     50  OE1       11.9380    1.6140    9.7460 O.co2  32  GLU32      -0.2457
     51  OE2       10.0710    0.4940    9.8540 O.co2  32  GLU32      -0.2457
     52  N         12.5610    2.8020    6.2400 N.am   33  ILE33      -0.1980
     53  CA        12.4660    4.2660    6.2830 C.3    33  ILE33       0.1595
     54  C         11.3440    4.7310    5.3680 C.2    33  ILE33       0.2287
     55  O         10.5960    5.6680    5.6770 O.2    33  ILE33      -0.2864
     56  CB        13.7480    4.9430    5.7700 C.3    33  ILE33       0.0276
     57  CG1       14.9740    4.2660    6.3610 C.3    33  ILE33       0.0022
     58  CG2       13.7300    6.4210    6.1350 C.3    33  ILE33       0.0022
     59  CD1       15.0110    4.2330    7.8560 C.3    33  ILE33       0.0001
     60  N          8.6890    3.0900    4.5960 N.3    35  TYR35      -0.1227
     61  CA         7.4300    2.7960    5.2690 C.3    35  TYR35       0.1736
     62  C          7.1930    3.8830    6.3200 C.2    35  TYR35       0.2595
     63  O          6.1070    4.4520    6.4130 O.2    35  TYR35      -0.2718
     64  CB         7.5280    1.4250    5.9450 C.3    35  TYR35       0.0548
     65  CG         6.3520    1.0460    6.8020 C.ar   35  TYR35      -0.0200
     66  CD1        5.1390    0.6690    6.2340 C.ar   35  TYR35      -0.0009
     67  CD2        6.4570    1.0550    8.1980 C.ar   35  TYR35      -0.0009
     68  CE1        4.0470    0.3090    7.0350 C.ar   35  TYR35       0.0417
     69  CE2        5.3840    0.7020    9.0050 C.ar   35  TYR35       0.0417
     70  CZ         4.1860    0.3340    8.4180 C.ar   35  TYR35       0.1957
     71  OH         3.1220    0.0240    9.2180 O.3    35  TYR35      -0.2866
     72  N          8.2370    4.1580    7.0980 N.am   36  PHE36      -0.1976
     73  CA         8.1930    5.1620    8.1570 C.3    36  PHE36       0.1639
     74  C          7.6820    6.4860    7.6430 C.2    36  PHE36       0.2290
     75  O          6.7510    7.0610    8.2120 O.2    36  PHE36      -0.2864
     76  CB         9.5900    5.3720    8.7580 C.3    36  PHE36       0.0560
     77  CG         9.6920    6.5730    9.6690 C.ar   36  PHE36      -0.0200
     78  CD1        9.1420    6.5430   10.9490 C.ar   36  PHE36      -0.0042
     79  CD2       10.3390    7.7350    9.2510 C.ar   36  PHE36      -0.0042
     80  CE1        9.2390    7.6580   11.8000 C.ar   36  PHE36      -0.0003
     81  CE2       10.4400    8.8480   10.0910 C.ar   36  PHE36      -0.0003
     82  CZ         9.8890    8.8060   11.3660 C.ar   36  PHE36      -0.0000
     83  N         17.3650   11.6890   19.3250 N.3    61  THR61      -0.1218
     84  CA        16.8430   11.2550   18.0450 C.3    61  THR61       0.1862
     85  C         17.0470   12.3570   17.0150 C.2    61  THR61       0.2287
     86  O         17.5040   12.0950   15.9050 O.2    61  THR61      -0.2866
     87  CB        15.3530   10.9050   18.1570 C.3    61  THR61       0.1770
     88  OG1       15.2130    9.7180   18.9430 O.3    61  THR61      -0.2211
     89  CG2       14.7440   10.6820   16.7790 C.3    61  THR61       0.0375
     90  N         20.4520   12.2360   15.8620 N.3    64  SER64      -0.1202
     91  CA        20.6980   11.0040   15.1280 C.3    64  SER64       0.2020
     92  C         20.3070   11.1210   13.6520 C.2    64  SER64       0.2619
     93  O         20.6980   10.2900   12.8330 O.2    64  SER64      -0.2717
     94  CB        19.9220    9.8520   15.7820 C.3    64  SER64       0.2103
     95  OG        20.1320    8.6290   15.1000 O.3    64  SER64      -0.2182
     96  N         19.5380   12.1500   13.3130 N.am   65  ILE65      -0.1966
     97  CA        19.1100   12.3410   11.9320 C.3    65  ILE65       0.1712
     98  C         20.0190   13.3290   11.1980 C.2    65  ILE65       0.2458
     99  O         20.2500   14.4450   11.6710 O.2    65  ILE65      -0.2730
    100  CB        17.6620   12.8650   11.8660 C.3    65  ILE65       0.0289
    101  CG1       16.7340   11.9240   12.6400 C.3    65  ILE65       0.0022
    102  CG2       17.2110   12.9740   10.4120 C.3    65  ILE65       0.0023
    103  CD1       15.3040   12.3990   12.7180 C.3    65  ILE65       0.0001
    104  N         20.5510   12.9260   10.0330 N.am   66  PRO66      -0.2727
    105  CA        21.4350   13.7750    9.2270 C.3    66  PRO66       0.1402
    106  C         20.7630   15.0880    8.8450 C.2    66  PRO66       0.2269
    107  O         19.5520   15.1310    8.6130 O.2    66  PRO66      -0.2865
    108  CB        21.7210   12.9080    8.0050 C.3    66  PRO66       0.0296
    109  CG        21.6960   11.5310    8.5710 C.3    66  PRO66       0.0237
    110  CD        20.4700   11.5730    9.4580 C.3    66  PRO66       0.0939
    111  N         17.7520   15.1380    6.0470 N.3    69  PHE69      -0.1241
    112  CA        16.3160   14.9880    6.2620 C.3    69  PHE69       0.1605
    113  C         15.7750   15.7350    7.4830 C.2    69  PHE69       0.2264
    114  O         14.7340   15.3680    8.0280 O.2    69  PHE69      -0.2867
    115  CB        15.9750   13.4940    6.3650 C.3    69  PHE69       0.0534
    116  CG        16.6860   12.6360    5.3430 C.ar   69  PHE69      -0.0203
    117  CD1       16.4020   12.7600    3.9860 C.ar   69  PHE69      -0.0042
    118  CD2       17.6700   11.7320    5.7390 C.ar   69  PHE69      -0.0042
    119  CE1       17.0900   11.9970    3.0370 C.ar   69  PHE69      -0.0003
    120  CE2       18.3630   10.9650    4.7970 C.ar   69  PHE69      -0.0003
    121  CZ        18.0720   11.0990    3.4460 C.ar   69  PHE69      -0.0000
    122  N         11.8810   16.7640    9.2660 N.3    72  LEU72      -0.1245
    123  CA        11.0540   15.8900    8.4460 C.3    72  LEU72       0.1561
    124  C         10.0010   16.7310    7.7510 C.2    72  LEU72       0.2260
    125  O          9.0750   17.2300    8.3870 O.2    72  LEU72      -0.2867
    126  CB        10.3900   14.8250    9.3120 C.3    72  LEU72       0.0270
    127  CG        11.3520   13.9790   10.1480 C.3    72  LEU72       0.0019
    128  CD1       10.5520   13.0430   11.0300 C.3    72  LEU72       0.0001
    129  CD2       12.2850   13.1940    9.2500 C.3    72  LEU72       0.0001
    130  N          7.9120    9.1160   17.5630 N.3   123  ILE123     -0.1245
    131  CA         8.8270    8.3500   16.7320 C.3   123  ILE123      0.1561
    132  C         10.1650    7.9970   17.3240 C.2   123  ILE123      0.2260
    133  O         10.8200    7.0430   16.8990 O.2   123  ILE123     -0.2867
    134  CB         9.1120    9.1020   15.4140 C.3   123  ILE123      0.0252
    135  CG1        9.9030   10.3920   15.6850 C.3   123  ILE123      0.0019
    136  CG2        7.8270    9.4740   14.7650 C.3   123  ILE123      0.0019
    137  CD1       10.6030   10.9910   14.4400 C.3   123  ILE123      0.0001
    138  N          9.7400    7.2370   24.6160 N.3   129  TYR129     -0.1241
    139  CA         8.8590    6.0990   24.5230 C.3   129  TYR129      0.1605
    140  C          8.3620    5.7680   25.9250 C.2   129  TYR129      0.2264
    141  O          7.1910    5.4420   26.1020 O.2   129  TYR129     -0.2867
    142  CB         9.5880    4.8890   23.9370 C.3   129  TYR129      0.0534
    143  CG         9.8180    4.9580   22.4510 C.ar  129  TYR129     -0.0201
    144  CD1        8.8760    5.5430   21.5920 C.ar  129  TYR129     -0.0009
    145  CD2       10.9640    4.4000   21.8890 C.ar  129  TYR129     -0.0009
    146  CE1        9.0830    5.5700   20.2030 C.ar  129  TYR129      0.0417
    147  CE2       11.1750    4.4150   20.5250 C.ar  129  TYR129      0.0417
    148  CZ        10.2460    4.9920   19.6880 C.ar  129  TYR129      0.1957
    149  OH        10.5080    4.9520   18.3400 O.3   129  TYR129     -0.2866
    150  N          2.9320    1.2510   16.1500 N.3   142  MET142     -0.1230
    151  CA         3.2540    0.7930   14.8070 C.3   142  MET142      0.1702
    152  C          4.6460    0.2690   15.0260 C.2   142  MET142      0.2592
    153  O          5.5860    1.0350   15.2190 O.2   142  MET142     -0.2718
    154  CB         3.3170    1.9560   13.8000 C.3   142  MET142      0.0401
    155  CG         2.0880    2.8000   13.6920 C.3   142  MET142      0.0596
    156  SD         0.6680    1.8200   13.2550 S.3   142  MET142     -0.1393
    157  CE         0.6720    1.9220   11.4780 C.3   142  MET142      0.0692
    158  N          4.7830   -1.0430   14.9830 N.am  143  ALA143     -0.1966
    159  CA         6.0670   -1.6690   15.2350 C.3   143  ALA143      0.1728
    160  C          6.6500   -2.4060   14.0480 C.2   143  ALA143      0.2616
    161  O          5.9280   -3.0100   13.2780 O.2   143  ALA143     -0.2715
    162  CB         5.9210   -2.6210   16.4130 C.3   143  ALA143      0.0334
    163  N          7.9670   -2.3600   13.9120 N.am  144  THR144     -0.1951
    164  CA         8.6470   -3.0930   12.8520 C.3   144  THR144      0.1897
    165  C          9.5260   -4.0860   13.5860 C.2   144  THR144      0.2313
    166  O         10.4450   -3.6880   14.2970 O.2   144  THR144     -0.2863
    167  CB         9.5400   -2.1830   11.9740 C.3   144  THR144      0.1794
    168  OG1        8.7280   -1.3250   11.1730 O.3   144  THR144     -0.2208
    169  CG2       10.4300   -3.0530   11.0600 C.3   144  THR144      0.0378
@<TRIPOS>BOND
     1   119   121   ar
     2   119   117   ar
     3   121   120   ar
     4   117   116   ar
     5    60    61    1
     6   120   118   ar
     7    43    44    1
     8    61    64    1
     9    61    62    1
    10   116   118   ar
    11   116   115    1
    12    54    55    2
    13    54    53    1
    14    56    58    1
    15    56    53    1
    16    56    57    1
    17    64    65    1
    18   111   112    1
    19    66    65   ar
    20    66    68   ar
    21    52    53    1
    22    52    45   am
    23   112   115    1
    24   112   113    1
    25    62    63    2
    26    62    72   am
    27    57    59    1
    28    44    45    1
    29    44    47    1
    30    45    46    2
    31    65    67   ar
    32    68    70   ar
    33    72    73    1
    34   113   114    2
    35    47    48    1
    36    74    73    1
    37    74    75    2
    38   124   125    2
    39   124   123    1
    40   108   109    1
    41   108   105    1
    42    73    76    1
    43    67    69   ar
    44    70    69   ar
    45    70    71    1
    46   123   122    1
    47   123   126    1
    48   109   110    1
    49   107   106    2
    50    48    49    1
    51    76    77    1
    52   106   105    1
    53   105   104    1
    54   129   127    1
    55    79    77   ar
    56    79    81   ar
    57    31    32    2
    58    31    30    1
    59   126   127    1
    60   110   104    1
    61    49    50   ar
    62    49    51   ar
    63    77    78   ar
    64   104    98   am
    65    81    82   ar
    66   127   128    1
    67   102   100    1
    68    30    33    1
    69    30    29    1
    70    33    34    1
    71    78    80   ar
    72   169   167    1
    73    35    34   ar
    74    35    37   ar
    75   168   167    1
    76    98    99    2
    77    98    97    1
    78    82    80   ar
    79   157   156    1
    80    34    36   ar
    81   100    97    1
    82   100   101    1
    83    28    26    1
    84    97    96    1
    85     8     6    1
    86   167   164    1
    87    37    38   ar
    88    24    23    2
    89    26    27    1
    90    26    25    1
    91   101   103    1
    92    93    92    2
    93   164   165    1
    94   164   163    1
    95    36    38   ar
    96    36    39   ar
    97   156   155    1
    98     6     5    1
    99   161   160    2
   100    25    22    1
   101    96    92   am
   102    38    40   ar
   103    23    22    1
   104   165   166    2
   105    20    17    1
   106    92    91    1
   107   155   154    1
   108   154   151    1
   109    39    41   ar
   110   163   160   am
   111   160   159    1
   112    22    21    1
   113     5     7    1
   114     5     2    1
   115   137   135    1
   116    40    42   ar
   117   136   134    1
   118    17    16    1
   119    17    18    1
   120   151   152    1
   121   151   150    1
   122   158   152   am
   123   158   159    1
   124    12    11    2
   125   152   153    2
   126    95    94    1
   127    91    94    1
   128    91    90    1
   129    41    42   ar
   130   159   162    1
   131   134   135    1
   132   134   131    1
   133    16    11   am
   134    11    10    1
   135     2     3    1
   136     2     1    1
   137    18    19    2
   138     9     3   am
   139     9    10    1
   140    86    85    2
   141     3     4    2
   142    10    13    1
   143   131   132    1
   144   131   130    1
   145    89    87    1
   146   133   132    2
   147    85    84    1
   148    13    14    1
   149    13    15    1
   150    84    87    1
   151    84    83    1
   152    87    88    1
   153   149   148    1
   154   148   146   ar
   155   148   147   ar
   156   146   144   ar
   157   147   145   ar
   158   144   143   ar
   159   145   143   ar
   160   143   142    1
   161   142   139    1
   162   139   138    1
   163   139   140    1
   164   140   141    2
