@<TRIPOS>MOLECULE
tmp/1s3zA01.pdb
 165 164 0 0 0
SMALL
GASTEIGER

@<TRIPOS>ATOM
      1  N          4.1060   -6.3330    7.3910 N.3    20  ARG20      -0.1245
      2  CA         4.6360   -5.4950    8.4520 C.3    20  ARG20       0.1563
      3  C          3.5560   -5.0520    9.4520 C.2    20  ARG20       0.2260
      4  O          3.7830   -4.9720   10.6650 O.2    20  ARG20      -0.2867
      5  CB         5.3200   -4.2660    7.8550 C.3    20  ARG20       0.0307
      6  CG         6.4250   -3.6460    8.7570 C.3    20  ARG20       0.0489
      7  CD         7.2870   -2.8750    7.7980 C.3    20  ARG20       0.2205
      8  NE         8.4320   -2.1940    8.3780 N.pl3  20  ARG20      -0.0865
      9  CZ         8.4790   -0.9210    8.7580 C.cat  20  ARG20       0.5346
     10  NH1        7.4170   -0.1280    8.6450 N.pl3  20  ARG20       0.1354
     11  NH2        9.6450   -0.4310    9.1930 N.pl3  20  ARG20       0.1354
     12  N          3.1330   -7.7000   11.9550 N.3    23  LEU23      -0.1231
     13  CA         4.1660   -7.8180   12.9870 C.3    23  LEU23       0.1693
     14  C          4.0390   -6.6900   14.0290 C.2    23  LEU23       0.2592
     15  O          4.1700   -6.9530   15.2260 O.2    23  LEU23      -0.2718
     16  CB         5.5880   -7.7610   12.3800 C.3    23  LEU23       0.0284
     17  CG         6.7870   -7.6200   13.3630 C.3    23  LEU23       0.0019
     18  CD1        6.9410   -8.8810   14.2400 C.3    23  LEU23       0.0001
     19  CD2        8.1070   -7.3870   12.5360 C.3    23  LEU23       0.0001
     20  N          3.7910   -5.4630   13.5650 N.am   24  TRP24      -0.1963
     21  CA         3.7250   -4.2650   14.4130 C.3    24  TRP24       0.1756
     22  C          2.4040   -3.5040   14.2130 C.2    24  TRP24       0.2461
     23  O          2.3740   -2.4620   13.5620 O.2    24  TRP24      -0.2730
     24  CB         4.8930   -3.3080   14.0880 C.3    24  TRP24       0.0590
     25  CG         6.2770   -3.8310   14.4540 C.ar   24  TRP24       0.0006
     26  CD1        6.6080   -4.4660   15.5890 C.ar   24  TRP24       0.0946
     27  CD2        7.4980   -3.7850   13.6490 C.ar   24  TRP24       0.0152
     28  NE1        7.9340   -4.8230   15.5700 N.ar   24  TRP24      -0.2442
     29  CE2        8.5050   -4.4240   14.3950 C.ar   24  TRP24       0.0810
     30  CE3        7.8190   -3.2670   12.3720 C.ar   24  TRP24       0.0012
     31  CZ2        9.8380   -4.5750   13.9200 C.ar   24  TRP24       0.0191
     32  CZ3        9.1500   -3.4120   11.8790 C.ar   24  TRP24       0.0001
     33  CH2       10.1390   -4.0650   12.6610 C.ar   24  TRP24       0.0015
     34  N          1.2940   -4.0200   14.7600 N.am   25  PRO25      -0.2716
     35  CA         0.0290   -3.2780   14.5590 C.3    25  PRO25       0.1536
     36  C          0.1230   -1.8390   15.1280 C.2    25  PRO25       0.2599
     37  O          1.0020   -1.5150   15.9300 O.2    25  PRO25      -0.2715
     38  CB        -0.9920   -4.1040   15.3270 C.3    25  PRO25       0.0310
     39  CG        -0.3390   -5.5330   15.4070 C.3    25  PRO25       0.0237
     40  CD         1.1250   -5.2320   15.5890 C.3    25  PRO25       0.0939
     41  N         -0.7670   -0.9510   14.7200 N.am   26  GLY26      -0.1941
     42  CA        -0.6690    0.3860   15.2890 C.3    26  GLY26       0.2014
     43  C          0.6920    1.0990   15.1620 C.2    26  GLY26       0.2639
     44  O          0.9570    2.0860   15.8720 O.2    26  GLY26      -0.2714
     45  N          1.6110    0.5620   14.3540 N.am   27  HIS27      -0.1959
     46  CA         2.8190    1.3260   14.0670 C.3    27  HIS27       0.1772
     47  C          1.9590    2.1320   13.0540 C.2    27  HIS27       0.2462
     48  O          1.2130    1.5440   12.2700 O.2    27  HIS27      -0.2730
     49  CB         3.8900    0.4740   13.3560 C.3    27  HIS27       0.0785
     50  CG         5.0340    1.2710   12.7960 C.ar   27  HIS27       0.0821
     51  ND1        6.0270    1.8200   13.5850 N.ar   27  HIS27      -0.2267
     52  CD2        5.3330    1.6260   11.5230 C.ar   27  HIS27       0.1154
     53  CE1        6.8880    2.4730   12.8210 C.ar   27  HIS27       0.1986
     54  NE2        6.4890    2.3700   11.5660 N.ar   27  HIS27      -0.2212
     55  N          2.0010    3.4660   13.0870 N.am   28  PRO28      -0.2727
     56  CA         1.1630    4.2360   12.1400 C.3    28  PRO28       0.1402
     57  C          1.2240    3.9150   10.6370 C.2    28  PRO28       0.2269
     58  O          2.2890    3.7040   10.0700 O.2    28  PRO28      -0.2865
     59  CB         1.5500    5.6840   12.4340 C.3    28  PRO28       0.0296
     60  CG         1.9820    5.6300   13.9130 C.3    28  PRO28       0.0237
     61  CD         2.7960    4.3570   13.9500 C.3    28  PRO28       0.0939
     62  N          8.4270    4.7620    5.6010 N.3    35  ASP35      -0.1239
     63  CA         9.4620    3.7170    5.8270 C.3    35  ASP35       0.1674
     64  C          9.7600    2.9460    4.5560 C.2    35  ASP35       0.2266
     65  O         10.9120    2.7050    4.2300 O.2    35  ASP35      -0.2867
     66  CB         9.0050    2.7190    6.9000 C.3    35  ASP35       0.1410
     67  CG         8.9560    3.3440    8.3130 C.2    35  ASP35       0.3668
     68  OD1        9.3310    4.5390    8.4530 O.co2  35  ASP35      -0.2456
     69  OD2        8.5300    2.6500    9.2700 O.co2  35  ASP35      -0.2456
     70  N         13.2470   -6.9610    8.1340 N.3    61  ASP61      -0.1239
     71  CA        13.7950   -5.6250    7.9190 C.3    61  ASP61       0.1674
     72  C         15.2370   -5.6810    8.4790 C.2    61  ASP61       0.2266
     73  O         15.4280   -6.2110    9.5840 O.2    61  ASP61      -0.2867
     74  CB        13.0520   -4.5730    8.7320 C.3    61  ASP61       0.1410
     75  CG        11.6780   -4.2680    8.1380 C.2    61  ASP61       0.3668
     76  OD1       11.4290   -4.5940    6.9250 O.co2  61  ASP61      -0.2456
     77  OD2       10.8660   -3.6710    8.8830 O.co2  61  ASP61      -0.2456
     78  N         24.2610   -0.6630   10.9140 N.3    65  ARG65      -0.1245
     79  CA        24.2990    0.2910   11.9810 C.3    65  ARG65       0.1563
     80  C         25.7220    0.7190   12.2990 C.2    65  ARG65       0.2260
     81  O         26.5590   -0.1450   12.4950 O.2    65  ARG65      -0.2867
     82  CB        23.7070   -0.2990   13.2960 C.3    65  ARG65       0.0307
     83  CG        22.1270   -0.2850   13.4000 C.3    65  ARG65       0.0489
     84  CD        21.7210   -0.6410   14.8130 C.3    65  ARG65       0.2205
     85  NE        20.3130   -0.9540   14.9690 N.pl3  65  ARG65      -0.0865
     86  CZ        19.7560   -1.2750   16.1280 C.cat  65  ARG65       0.5346
     87  NH1       20.4810   -1.3250   17.2350 N.pl3  65  ARG65       0.1354
     88  NH2       18.4720   -1.5050   16.1780 N.pl3  65  ARG65       0.1354
     89  N         22.1270   -5.3540   11.3000 N.3    79  PHE79      -0.1227
     90  CA        21.1750   -5.5750   12.3840 C.3    79  PHE79       0.1736
     91  C         19.7800   -5.9740   11.9320 C.2    79  PHE79       0.2595
     92  O         19.2050   -5.3910   10.9680 O.2    79  PHE79      -0.2718
     93  CB        21.1190   -4.3110   13.2470 C.3    79  PHE79       0.0547
     94  CG        20.4980   -4.5290   14.5950 C.ar   79  PHE79      -0.0202
     95  CD1       19.0900   -4.5270   14.7490 C.ar   79  PHE79      -0.0042
     96  CD2       21.3080   -4.7520   15.7100 C.ar   79  PHE79      -0.0042
     97  CE1       18.5100   -4.7480   16.0370 C.ar   79  PHE79      -0.0003
     98  CE2       20.7280   -4.9830   17.0000 C.ar   79  PHE79      -0.0003
     99  CZ        19.3410   -4.9750   17.1500 C.ar   79  PHE79      -0.0000
    100  N         19.2720   -7.0120   12.5860 N.am   80  LEU80      -0.1966
    101  CA        17.9490   -7.5420   12.2030 C.3    80  LEU80       0.1728
    102  C         16.9220   -6.6610   12.9450 C.2    80  LEU80       0.2616
    103  O         16.7810   -6.7850   14.1390 O.2    80  LEU80      -0.2715
    104  CB        17.8760   -9.0300   12.6290 C.3    80  LEU80       0.0311
    105  CG        16.5320   -9.7550   12.2350 C.3    80  LEU80       0.0022
    106  CD1       16.4740   -9.8780   10.7550 C.3    80  LEU80       0.0001
    107  CD2       16.4100  -11.1520   12.8510 C.3    80  LEU80       0.0001
    108  N         16.2790   -5.7320   12.2360 N.am   81  GLU81      -0.1963
    109  CA        15.3270   -4.7960   12.8430 C.3    81  GLU81       0.1733
    110  C         13.9180   -5.3700   13.1480 C.2    81  GLU81       0.2617
    111  O         13.2210   -4.8480   14.0210 O.2    81  GLU81      -0.2715
    112  CB        15.2020   -3.5090   11.9640 C.3    81  GLU81       0.0429
    113  CG        16.4980   -2.7410   11.7620 C.3    81  GLU81       0.1163
    114  CD        17.0240   -2.0020   13.0090 C.2    81  GLU81       0.3649
    115  OE1       16.3980   -2.0890   14.0770 O.co2  81  GLU81      -0.2457
    116  OE2       18.0880   -1.3390   12.9410 O.co2  81  GLU81      -0.2457
    117  N         13.5390   -6.4340   12.4430 N.am   82  GLY82      -0.1940
    118  CA        12.2640   -7.0810   12.6810 C.3    82  GLY82       0.2014
    119  C         12.1640   -8.3000   11.7650 C.2    82  GLY82       0.2638
    120  O         12.7420   -8.2820   10.6500 O.2    82  GLY82      -0.2714
    121  N         11.4290   -9.3260   12.1830 N.am   83  ILE83      -0.1977
    122  CA        11.2410  -10.4720   11.3560 C.3    83  ILE83       0.1596
    123  C          9.8970  -11.1070   11.7180 C.2    83  ILE83       0.2287
    124  O          9.4760  -11.1150   12.8960 O.2    83  ILE83      -0.2864
    125  CB        12.3990  -11.4520   11.4520 C.3    83  ILE83       0.0276
    126  CG1       12.2070  -12.6030   10.4460 C.3    83  ILE83       0.0022
    127  CG2       12.5040  -12.0130   12.8800 C.3    83  ILE83       0.0022
    128  CD1       13.5850  -13.4440   10.2620 C.3    83  ILE83       0.0001
    129  N         20.8680   -8.6170   16.6770 N.3   116  SER116     -0.1202
    130  CA        19.3990   -8.5820   16.7480 C.3   116  SER116      0.2020
    131  C         19.0300   -8.4020   18.2340 C.2   116  SER116      0.2619
    132  O         19.8940   -8.4860   19.0880 O.2   116  SER116     -0.2717
    133  CB        18.8800   -9.9210   16.1990 C.3   116  SER116      0.2103
    134  OG        17.4570   -9.9370   16.1170 O.3   116  SER116     -0.2182
    135  N         17.7890   -8.0900   18.5410 N.am  117  ASP117     -0.1959
    136  CA        17.3840   -8.0110   19.9410 C.3   117  ASP117      0.1840
    137  C         15.9160   -8.4960   20.0270 C.2   117  ASP117      0.2623
    138  O         15.1790   -8.5340   19.0060 O.2   117  ASP117     -0.2715
    139  CB        17.5560   -6.5860   20.5480 C.3   117  ASP117      0.1450
    140  CG        16.7110   -5.5330   19.8460 C.2   117  ASP117      0.3671
    141  OD1       16.2410   -5.7480   18.7300 O.co2 117  ASP117     -0.2456
    142  OD2       16.5350   -4.4340   20.3910 O.co2 117  ASP117     -0.2456
    143  N         15.4900   -8.8940   21.2190 N.am  118  THR118     -0.1937
    144  CA        14.1200   -9.3590   21.3480 C.3   118  THR118      0.2028
    145  C         13.7440   -9.2640   22.8190 C.2   118  THR118      0.2642
    146  O         14.6220   -9.2280   23.6950 O.2   118  THR118     -0.2714
    147  CB        13.9860  -10.8390   20.8800 C.3   118  THR118      0.1808
    148  OG1       12.5950  -11.1670   20.6520 O.3   118  THR118     -0.2208
    149  CG2       14.5750  -11.7910   21.9550 C.3   118  THR118      0.0379
    150  N         12.4530   -9.1880   23.0890 N.am  119  SER119     -0.1949
    151  CA        11.9820   -9.1350   24.4850 C.3   119  SER119      0.1924
    152  C         12.3380  -10.4030   25.2810 C.2   119  SER119      0.2314
    153  O         12.2520  -11.5340   24.7830 O.2   119  SER119     -0.2863
    154  CB        10.4620   -9.0020   24.5570 C.3   119  SER119      0.2116
    155  OG        10.1330   -9.3420   25.9100 O.3   119  SER119     -0.2180
    156  N         16.5840  -17.4160   17.6790 N.3   129  HIS129     -0.1241
    157  CA        17.8910  -16.7710   17.4800 C.3   129  HIS129      0.1621
    158  C         19.0050  -17.7780   17.8090 C.2   129  HIS129      0.2264
    159  O         19.9510  -17.9540   17.0520 O.2   129  HIS129     -0.2867
    160  CB        18.0450  -15.5130   18.3100 C.3   129  HIS129      0.0745
    161  CG        17.3510  -14.3010   17.7430 C.ar  129  HIS129      0.0817
    162  ND1       16.0520  -13.9760   18.0650 N.ar  129  HIS129     -0.2268
    163  CD2       17.7970  -13.3060   16.9300 C.ar  129  HIS129      0.1154
    164  CE1       15.7250  -12.8300   17.4880 C.ar  129  HIS129      0.1986
    165  NE2       16.7610  -12.4020   16.7930 N.ar  129  HIS129     -0.2212
@<TRIPOS>BOND
     1    65    64    2
     2    64    63    1
     3    62    63    1
     4    63    66    1
     5    66    67    1
     6    76    75   ar
     7     1     2    1
     8     7     8    1
     9     7     6    1
    10     5     2    1
    11     5     6    1
    12    71    70    1
    13    71    72    1
    14    71    74    1
    15    75    74    1
    16    75    77   ar
    17    67    68   ar
    18    67    69   ar
    19     8     9    2
    20     2     3    1
    21    72    73    2
    22    10     9    1
    23     9    11    1
    24     3     4    2
    25    58    57    2
    26   128   126    1
    27   126   125    1
    28    57    56    1
    29   120   119    2
    30   106   105    1
    31    78    79    1
    32    92    91    2
    33    89    90    1
    34   122   125    1
    35   122   123    1
    36   122   121    1
    37   125   127    1
    38    52    54   ar
    39    52    50   ar
    40    54    53   ar
    41   123   124    2
    42   113   112    1
    43   113   114    1
    44   119   121   am
    45   119   118    1
    46    32    30   ar
    47    32    33   ar
    48    91    90    1
    49    91   100   am
    50    12    13    1
    51   112   109    1
    52    79    80    1
    53    79    82    1
    54    56    59    1
    55    56    55    1
    56   101   100    1
    57   101   104    1
    58   101   102    1
    59   105   104    1
    60   105   107    1
    61   108   109    1
    62   108   102   am
    63    48    47    2
    64    80    81    2
    65    30    27   ar
    66    16    13    1
    67    16    17    1
    68    90    93    1
    69    59    60    1
    70   117   118    1
    71   117   110   am
    72    19    17    1
    73    33    31   ar
    74    50    49    1
    75    50    51   ar
    76    53    51   ar
    77   109   110    1
    78   116   114   ar
    79   102   103    2
    80    13    14    1
    81   114   115   ar
    82    47    55   am
    83    47    46    1
    84    55    61    1
    85   110   111    2
    86    93    94    1
    87    82    83    1
    88    49    46    1
    89    17    18    1
    90    83    84    1
    91    23    22    2
    92    20    14   am
    93    20    21    1
    94    27    29   ar
    95    27    25   ar
    96    60    61    1
    97    31    29   ar
    98    14    15    2
    99    46    45    1
   100    24    21    1
   101    24    25    1
   102    22    21    1
   103    22    34   am
   104    45    43   am
   105    29    28   ar
   106    25    26   ar
   107    35    34    1
   108    35    36    1
   109    35    38    1
   110    94    95   ar
   111    94    96   ar
   112    41    36   am
   113    41    42    1
   114    95    97   ar
   115    34    40    1
   116    84    85    1
   117    85    86    2
   118    36    37    2
   119    43    42    1
   120    43    44    2
   121    38    39    1
   122    39    40    1
   123    28    26   ar
   124    96    98   ar
   125    97    99   ar
   126   134   133    1
   127    86    88    1
   128    86    87    1
   129   133   130    1
   130   129   130    1
   131   130   131    1
   132   165   163   ar
   133   165   164   ar
   134   163   161   ar
   135    98    99   ar
   136   159   158    2
   137   157   156    1
   138   157   158    1
   139   157   160    1
   140   164   162   ar
   141   161   162   ar
   142   161   160    1
   143   131   135   am
   144   131   132    2
   145   135   136    1
   146   141   140   ar
   147   138   137    2
   148   140   142   ar
   149   140   139    1
   150   136   137    1
   151   136   139    1
   152   137   143   am
   153   148   147    1
   154   147   144    1
   155   147   149    1
   156   143   144    1
   157   144   145    1
   158   145   150   am
   159   145   146    2
   160   150   151    1
   161   151   154    1
   162   151   152    1
   163   154   155    1
   164   153   152    2
