@<TRIPOS>MOLECULE
tmp/1s49A00.pdb
 190 182 0 0 0
SMALL
GASTEIGER

@<TRIPOS>ATOM
      1  N         -0.6380  166.9230   23.3000 N.3   172  GLU172     -0.1231
      2  CA         0.0970  165.6680   23.3590 C.3   172  GLU172      0.1699
      3  C          1.1890  165.6260   22.2890 C.2   172  GLU172      0.2592
      4  O          1.1590  166.3880   21.3220 O.2   172  GLU172     -0.2718
      5  CB        -0.8760  164.5240   23.1080 C.3   172  GLU172      0.0402
      6  CG        -1.2030  164.3870   21.6300 C.3   172  GLU172      0.1161
      7  CD        -2.4590  163.5980   21.3560 C.2   172  GLU172      0.3649
      8  OE1       -2.6380  162.5210   21.9730 O.co2 172  GLU172     -0.2457
      9  OE2       -3.2600  164.0600   20.5090 O.co2 172  GLU172     -0.2457
     10  N          2.1490  164.7250   22.4670 N.am  173  LYS173     -0.1980
     11  CA         3.2200  164.5590   21.4920 C.3   173  LYS173      0.1596
     12  C          2.7520  163.5110   20.4850 C.2   173  LYS173      0.2287
     13  O          2.1490  162.5020   20.8500 O.2   173  LYS173     -0.2864
     14  CB         4.5100  164.1230   22.1870 C.3   173  LYS173      0.0298
     15  CG         5.1310  165.2330   23.0190 C.3   173  LYS173      0.0038
     16  CD         6.0550  164.6760   24.0800 C.3   173  LYS173      0.0206
     17  CE         6.5260  165.7620   25.0390 C.3   173  LYS173      0.1093
     18  NZ         7.2920  165.2190   26.2040 N.3   173  LYS173     -0.1314
     19  N        -11.1820  143.8070   22.1020 N.3   223  GLU223     -0.1231
     20  CA        -9.8460  143.6920   22.6770 C.3   223  GLU223      0.1699
     21  C         -9.4820  144.8140   23.6730 C.2   223  GLU223      0.2592
     22  O         -8.3330  144.9210   24.1130 O.2   223  GLU223     -0.2718
     23  CB        -8.8310  143.6410   21.5300 C.3   223  GLU223      0.0402
     24  CG        -8.0270  142.3460   21.4580 C.3   223  GLU223      0.1161
     25  CD        -8.8730  141.0980   21.6560 C.2   223  GLU223      0.3649
     26  OE1       -9.7760  140.8280   20.8400 O.co2 223  GLU223     -0.2457
     27  OE2       -8.6250  140.3830   22.6420 O.co2 223  GLU223     -0.2457
     28  N        -10.4730  145.6230   24.0440 N.am  224  GLY224     -0.1957
     29  CA       -10.2530  146.7360   24.9570 C.3   224  GLY224      0.1869
     30  C         -9.5900  146.5240   26.3150 C.2   224  GLY224      0.2309
     31  O         -8.7880  147.3550   26.7310 O.2   224  GLY224     -0.2863
     32  N         -7.7380  143.9420   26.9900 N.3   226  THR226     -0.1204
     33  CA        -6.6770  142.9750   26.7230 C.3   226  THR226      0.1979
     34  C         -5.2740  143.5390   26.6640 C.2   226  THR226      0.2460
     35  O         -4.9710  144.3490   25.7990 O.2   226  THR226     -0.2732
     36  CB        -6.9250  142.2500   25.3950 C.3   226  THR226      0.1783
     37  OG1       -8.0610  141.3920   25.5270 O.3   226  THR226     -0.2211
     38  CG2       -5.7140  141.4280   25.0020 C.3   226  THR226      0.0376
     39  N         -4.3890  143.1060   27.5750 N.am  227  PRO227     -0.2717
     40  CA        -3.0220  143.6260   27.5350 C.3   227  PRO227      0.1535
     41  C         -2.5370  143.4100   26.1190 C.2   227  PRO227      0.2598
     42  O         -2.9780  142.4780   25.4540 O.2   227  PRO227     -0.2715
     43  CB        -2.2920  142.7500   28.5380 C.3   227  PRO227      0.0310
     44  CG        -3.3400  142.5150   29.5640 C.3   227  PRO227      0.0237
     45  CD        -4.5700  142.2060   28.7250 C.3   227  PRO227      0.0939
     46  N         -1.6410  144.2650   25.6520 N.am  228  LEU228     -0.1978
     47  CA        -1.1420  144.1540   24.2910 C.3   228  LEU228      0.1596
     48  C         -0.0890  143.0820   24.0740 C.2   228  LEU228      0.2287
     49  O          0.0480  142.5590   22.9760 O.2   228  LEU228     -0.2864
     50  CB        -0.5690  145.4940   23.8380 C.3   228  LEU228      0.0297
     51  CG        -1.1990  146.0900   22.5870 C.3   228  LEU228      0.0022
     52  CD1       -0.2680  147.1230   22.0240 C.3   228  LEU228      0.0001
     53  CD2       -1.4400  145.0140   21.5580 C.3   228  LEU228      0.0001
     54  N         -1.8370  139.4280   22.8790 N.3   231  ILE231     -0.1245
     55  CA        -2.9830  139.3880   21.9890 C.3   231  ILE231      0.1561
     56  C         -2.7050  138.6200   20.6880 C.2   231  ILE231      0.2260
     57  O         -3.5140  137.8100   20.2440 O.2   231  ILE231     -0.2867
     58  CB        -3.4450  140.8270   21.6740 C.3   231  ILE231      0.0252
     59  CG1       -4.3910  140.8240   20.4840 C.3   231  ILE231      0.0019
     60  CG2       -2.2420  141.7260   21.4250 C.3   231  ILE231      0.0019
     61  CD1       -4.9900  142.1550   20.2450 C.3   231  ILE231      0.0001
     62  N        -11.3730  147.3020   18.6010 N.3   348  CYS348     -0.1235
     63  CA       -10.9550  148.1320   19.7190 C.3   348  CYS348      0.1677
     64  C        -11.2900  149.5410   19.2990 C.2   348  CYS348      0.2270
     65  O        -10.4560  150.2490   18.7530 O.2   348  CYS348     -0.2867
     66  CB        -9.4550  147.9990   19.9510 C.3   348  CYS348      0.0956
     67  SG        -8.9140  148.7180   21.4890 S.3   348  CYS348     -0.0801
     68  N        -10.8630  150.7320   15.5730 N.3   351  ASP351     -0.1239
     69  CA        -9.6920  149.9770   15.1610 C.3   351  ASP351      0.1674
     70  C        -10.0570  148.4930   15.2100 C.2   351  ASP351      0.2266
     71  O        -10.7560  148.0440   16.1240 O.2   351  ASP351     -0.2867
     72  CB        -8.5500  150.2790   16.1380 C.3   351  ASP351      0.1410
     73  CG        -7.1900  149.8890   15.6050 C.2   351  ASP351      0.3668
     74  OD1       -7.0000  148.7220   15.2050 O.co2 351  ASP351     -0.2456
     75  OD2       -6.3000  150.7610   15.6000 O.co2 351  ASP351     -0.2456
     76  N         -2.5950  146.0180   14.1100 N.3   396  PHE396     -0.1227
     77  CA        -3.6810  146.2240   15.0500 C.3   396  PHE396      0.1736
     78  C         -3.1810  147.0660   16.2100 C.2   396  PHE396      0.2596
     79  O         -2.1600  146.7450   16.8220 O.2   396  PHE396     -0.2718
     80  CB        -4.2180  144.8860   15.5570 C.3   396  PHE396      0.0547
     81  CG        -5.3530  145.0180   16.5420 C.ar  396  PHE396     -0.0202
     82  CD1       -6.3640  145.9450   16.3420 C.ar  396  PHE396     -0.0042
     83  CD2       -5.4130  144.2110   17.6640 C.ar  396  PHE396     -0.0042
     84  CE1       -7.4200  146.0630   17.2510 C.ar  396  PHE396     -0.0003
     85  CE2       -6.4670  144.3210   18.5760 C.ar  396  PHE396     -0.0003
     86  CZ        -7.4670  145.2480   18.3690 C.ar  396  PHE396     -0.0000
     87  N         -3.9090  148.1410   16.5090 N.am  397  CYS397     -0.1956
     88  CA        -3.5370  149.0670   17.5730 C.3   397  CYS397      0.1843
     89  C         -2.1060  149.5780   17.4430 C.2   397  CYS397      0.2626
     90  O         -1.4040  149.7630   18.4310 O.2   397  CYS397     -0.2714
     91  CB        -3.7580  148.4320   18.9420 C.3   397  CYS397      0.0997
     92  SG        -5.4680  148.5680   19.4460 S.3   397  CYS397     -0.0797
     93  N         -1.6960  149.8090   16.2020 N.am  398  SER398     -0.1936
     94  CA        -0.3770  150.3230   15.8980 C.3   398  SER398      0.2055
     95  C          0.7030  149.3020   16.1620 C.2   398  SER398      0.2643
     96  O          1.8340  149.6590   16.4700 O.2   398  SER398     -0.2714
     97  CB        -0.1000  151.5770   16.7260 C.3   398  SER398      0.2130
     98  OG        -1.1120  152.5470   16.5320 O.3   398  SER398     -0.2179
     99  N          0.3630  148.0290   16.0380 N.am  399  HIS399     -0.1973
    100  CA         1.3370  146.9750   16.2800 C.3   399  HIS399      0.1656
    101  C          1.1060  145.7900   15.3220 C.2   399  HIS399      0.2291
    102  O          0.0110  145.6120   14.7830 O.2   399  HIS399     -0.2864
    103  CB         1.2350  146.5220   17.7510 C.3   399  HIS399      0.0771
    104  CG         1.7060  147.5460   18.7440 C.ar  399  HIS399      0.0820
    105  ND1        2.9650  147.5210   19.3040 N.ar  399  HIS399     -0.2267
    106  CD2        1.0920  148.6390   19.2640 C.ar  399  HIS399      0.1154
    107  CE1        3.1100  148.5480   20.1250 C.ar  399  HIS399      0.1986
    108  NE2        1.9870  149.2420   20.1170 N.ar  399  HIS399     -0.2212
    109  N          6.4020  147.0140   16.6430 N.3   416  ARG416     -0.1245
    110  CA         6.2250  148.3690   16.1330 C.3   416  ARG416      0.1563
    111  C          7.6070  148.8440   15.6850 C.2   416  ARG416      0.2260
    112  O          8.6090  148.2900   16.1120 O.2   416  ARG416     -0.2867
    113  CB         5.7160  149.2440   17.2700 C.3   416  ARG416      0.0307
    114  CG         5.2490  150.6040   16.8830 C.3   416  ARG416      0.0489
    115  CD         4.8850  151.3610   18.1360 C.3   416  ARG416      0.2205
    116  NE         3.7330  152.2360   17.9420 N.pl3 416  ARG416     -0.0865
    117  CZ         3.1700  152.9340   18.9230 C.cat 416  ARG416      0.5346
    118  NH1        3.6610  152.8610   20.1580 N.pl3 416  ARG416      0.1354
    119  NH2        2.1060  153.6880   18.6800 N.pl3 416  ARG416      0.1354
    120  N          8.6200  157.2040   21.8830 N.3   424  LYS424     -0.1245
    121  CA         7.7130  157.1990   23.0110 C.3   424  LYS424      0.1561
    122  C          8.4280  156.9310   24.3220 C.2   424  LYS424      0.2260
    123  O          8.0650  157.4830   25.3570 O.2   424  LYS424     -0.2867
    124  CB         6.5960  156.1880   22.7640 C.3   424  LYS424      0.0271
    125  CG         5.9200  156.4550   21.4260 C.3   424  LYS424      0.0035
    126  CD         4.4730  156.0150   21.3870 C.3   424  LYS424      0.0206
    127  CE         3.7020  156.7760   20.3050 C.3   424  LYS424      0.1093
    128  NZ         3.6660  158.2690   20.5370 N.3   424  LYS424     -0.1314
    129  N          8.0730  160.1570   26.7980 N.3   427  ARG427     -0.1245
    130  CA         6.9850  159.9350   27.7380 C.3   427  ARG427      0.1563
    131  C          7.4790  160.5230   29.0580 C.2   427  ARG427      0.2260
    132  O          8.4170  160.0010   29.6530 O.2   427  ARG427     -0.2867
    133  CB         6.6890  158.4420   27.9050 C.3   427  ARG427      0.0307
    134  CG         5.5540  158.1590   28.8680 C.3   427  ARG427      0.0489
    135  CD         5.0150  156.7490   28.7090 C.3   427  ARG427      0.2205
    136  NE         4.2110  156.6000   27.4980 N.pl3 427  ARG427     -0.0865
    137  CZ         3.5360  155.4980   27.1810 C.cat 427  ARG427      0.5346
    138  NH1        3.5740  154.4480   27.9900 N.pl3 427  ARG427      0.1354
    139  NH2        2.8200  155.4450   26.0640 N.pl3 427  ARG427      0.1354
    140  N          8.0800  145.2700   24.7850 N.3   450  TYR450     -0.1241
    141  CA         9.0730  145.1040   23.7280 C.3   450  TYR450      0.1605
    142  C         10.3230  144.2790   24.0030 C.2   450  TYR450      0.2264
    143  O         11.3970  144.5950   23.4960 O.2   450  TYR450     -0.2867
    144  CB         9.4860  146.4940   23.2020 C.3   450  TYR450      0.0534
    145  CG         8.2830  147.3730   22.9030 C.ar  450  TYR450     -0.0201
    146  CD1        7.9000  148.4020   23.7680 C.ar  450  TYR450     -0.0009
    147  CD2        7.4850  147.1310   21.7900 C.ar  450  TYR450     -0.0009
    148  CE1        6.7560  149.1610   23.5260 C.ar  450  TYR450      0.0417
    149  CE2        6.3390  147.8850   21.5450 C.ar  450  TYR450      0.0417
    150  CZ         5.9840  148.8950   22.4130 C.ar  450  TYR450      0.1957
    151  OH         4.8530  149.6350   22.1520 O.3   450  TYR450     -0.2866
    152  N          2.6390  152.8030   32.8940 N.3   477  THR477     -0.1203
    153  CA         1.5650  151.9190   32.4450 C.3   477  THR477      0.1994
    154  C          1.4650  150.7740   33.4270 C.2   477  THR477      0.2617
    155  O          0.4070  150.5280   34.0150 O.2   477  THR477     -0.2717
    156  CB         1.8580  151.3600   31.0620 C.3   477  THR477      0.1784
    157  OG1        2.3610  152.4070   30.2220 O.3   477  THR477     -0.2211
    158  CG2        0.5940  150.7890   30.4570 C.3   477  THR477      0.0376
    159  N          2.5810  150.0700   33.5980 N.am  478  TYR478     -0.1975
    160  CA         2.6490  148.9620   34.5430 C.3   478  TYR478      0.1639
    161  C          3.7770  149.2470   35.5110 C.2   478  TYR478      0.2290
    162  O          4.6600  150.0520   35.2310 O.2   478  TYR478     -0.2864
    163  CB         2.9580  147.6320   33.8480 C.3   478  TYR478      0.0560
    164  CG         2.0000  147.2290   32.7640 C.ar  478  TYR478     -0.0198
    165  CD1        2.2830  147.5100   31.4320 C.ar  478  TYR478     -0.0009
    166  CD2        0.8110  146.5810   33.0670 C.ar  478  TYR478     -0.0009
    167  CE1        1.4120  147.1600   30.4270 C.ar  478  TYR478      0.0417
    168  CE2       -0.0740  146.2250   32.0720 C.ar  478  TYR478      0.0417
    169  CZ         0.2290  146.5220   30.7470 C.ar  478  TYR478      0.1957
    170  OH        -0.6660  146.2170   29.7390 O.3   478  TYR478     -0.2866
    171  N         -6.6370  153.7200   32.6820 N.3   571  TYR571     -0.1241
    172  CA        -7.5540  154.1240   31.6140 C.3   571  TYR571      0.1605
    173  C         -8.7170  153.1170   31.5630 C.2   571  TYR571      0.2264
    174  O         -9.8690  153.4520   31.8530 O.2   571  TYR571     -0.2867
    175  CB        -6.7700  154.1120   30.2830 C.3   571  TYR571      0.0534
    176  CG        -5.2450  154.2380   30.4460 C.ar  571  TYR571     -0.0201
    177  CD1       -4.5570  155.3720   29.9950 C.ar  571  TYR571     -0.0009
    178  CD2       -4.5000  153.2420   31.1000 C.ar  571  TYR571     -0.0009
    179  CE1       -3.1690  155.5110   30.1970 C.ar  571  TYR571      0.0417
    180  CE2       -3.1210  153.3740   31.3100 C.ar  571  TYR571      0.0417
    181  CZ        -2.4630  154.5110   30.8570 C.ar  571  TYR571      0.1957
    182  OH        -1.1100  154.6590   31.0800 O.3   571  TYR571     -0.2866
    183  N         -7.0420  146.6560   32.5500 N.3   574  LEU574     -0.1245
    184  CA        -6.6160  145.4620   31.8110 C.3   574  LEU574      0.1561
    185  C         -6.7570  144.2670   32.7370 C.2   574  LEU574      0.2260
    186  O         -6.3700  144.3400   33.9030 O.2   574  LEU574     -0.2867
    187  CB        -5.1460  145.5700   31.3910 C.3   574  LEU574      0.0270
    188  CG        -4.7010  146.7280   30.5000 C.3   574  LEU574      0.0019
    189  CD1       -3.2040  146.6380   30.3020 C.3   574  LEU574      0.0001
    190  CD2       -5.4270  146.6760   29.1540 C.3   574  LEU574      0.0001
@<TRIPOS>BOND
     1    76    77    1
     2   102   101    2
     3    77    80    1
     4    77    78    1
     5    69    70    1
     6    69    68    1
     7    69    72    1
     8    74    73   ar
     9    70    71    2
    10   101   100    1
    11    80    81    1
    12    75    73   ar
    13    73    72    1
    14   111   112    2
    15   111   110    1
    16    94    95    1
    17    94    93    1
    18    94    97    1
    19    99    95   am
    20    99   100    1
    21   110   109    1
    22   110   113    1
    23    95    96    2
    24    93    89   am
    25    78    87   am
    26    78    79    2
    27   100   103    1
    28    82    81   ar
    29    82    84   ar
    30    87    88    1
    31    98    97    1
    32    81    83   ar
    33   114   113    1
    34   114   115    1
    35    84    86   ar
    36    89    88    1
    37    89    90    2
    38    88    91    1
    39    83    85   ar
    40   103   104    1
    41   116   115    1
    42   116   117    2
    43    86    85   ar
    44    62    63    1
    45   119   117    1
    46   104   106   ar
    47   104   105   ar
    48    65    64    2
    49   117   118    1
    50    91    92    1
    51   106   108   ar
    52    64    63    1
    53   105   107   ar
    54    63    66    1
    55    66    67    1
    56   108   107   ar
    57    57    56    2
    58    61    59    1
    59   127   128    1
    60   127   126    1
    61    59    58    1
    62    12    13    2
    63    12    11    1
    64     9     7   ar
    65    56    55    1
    66    26    25   ar
    67     4     3    2
    68     7     6    1
    69     7     8   ar
    70   126   125    1
    71    60    58    1
    72   125   124    1
    73    24    23    1
    74    24    25    1
    75    11    14    1
    76    11    10    1
    77    23    20    1
    78   149   147   ar
    79   149   150   ar
    80    53    51    1
    81     6     5    1
    82    25    27   ar
    83    58    55    1
    84   147   145   ar
    85   120   121    1
    86    55    54    1
    87    52    51    1
    88    19    20    1
    89   151   150    1
    90    14    15    1
    91     3    10   am
    92     3     2    1
    93   150   148   ar
    94    51    50    1
    95    20    21    1
    96   124   121    1
    97   145   144    1
    98   145   146   ar
    99    49    48    2
   100   121   122    1
   101    15    16    1
   102     5     2    1
   103   144   141    1
   104     1     2    1
   105   143   142    2
   106   148   146   ar
   107    21    28   am
   108    21    22    2
   109   141   142    1
   110   141   140    1
   111    50    47    1
   112    28    29    1
   113    48    47    1
   114    16    17    1
   115    47    46    1
   116   122   123    2
   117    29    30    1
   118    38    36    1
   119    17    18    1
   120    36    37    1
   121    36    33    1
   122    42    41    2
   123    46    41   am
   124    35    34    2
   125   139   137    1
   126    41    40    1
   127    30    31    2
   128    34    33    1
   129    34    39   am
   130    33    32    1
   131   129   130    1
   132   137   136    2
   133   137   138    1
   134   136   135    1
   135    40    39    1
   136    40    43    1
   137    39    45    1
   138   130   133    1
   139   130   131    1
   140   133   134    1
   141    43    44    1
   142   135   134    1
   143    45    44    1
   144   131   132    2
   145   190   188    1
   146   170   169    1
   147   177   179   ar
   148   177   176   ar
   149   179   181   ar
   150   157   156    1
   151   175   176    1
   152   175   172    1
   153   189   188    1
   154   167   169   ar
   155   167   165   ar
   156   176   178   ar
   157   158   156    1
   158   188   187    1
   159   169   168   ar
   160   181   182    1
   161   181   180   ar
   162   156   153    1
   163   178   180   ar
   164   187   184    1
   165   165   164   ar
   166   173   172    1
   167   173   174    2
   168   172   171    1
   169   184   183    1
   170   184   185    1
   171   168   166   ar
   172   153   152    1
   173   153   154    1
   174   185   186    2
   175   164   166   ar
   176   164   163    1
   177   154   159   am
   178   154   155    2
   179   159   160    1
   180   163   160    1
   181   160   161    1
   182   162   161    2
