@<TRIPOS>MOLECULE
tmp/1s4dD00.pdb
 139 134 0 0 0
SMALL
GASTEIGER

@<TRIPOS>ATOM
      1  N        112.0680   31.1160  -49.1420 N.3    21  PRO21      -0.2116
      2  CA       110.8300   30.4750  -49.6030 C.3    21  PRO21       0.1372
      3  C        111.0250   29.5350  -50.7610 C.2    21  PRO21       0.2244
      4  O        110.1090   28.7720  -51.0650 O.2    21  PRO21      -0.2868
      5  CB       109.9750   31.6490  -50.0580 C.3    21  PRO21       0.0268
      6  CG       110.9720   32.7270  -50.4240 C.3    21  PRO21       0.0207
      7  CD       112.1700   32.5290  -49.5590 C.3    21  PRO21       0.0892
      8  N        109.6390   20.6250  -47.3550 N.3    46  LEU46      -0.1245
      9  CA       109.5480   20.9060  -48.8030 C.3    46  LEU46       0.1561
     10  C        110.7500   21.6720  -49.4140 C.2    46  LEU46       0.2260
     11  O        110.5910   22.4120  -50.3990 O.2    46  LEU46      -0.2867
     12  CB       108.1700   21.5420  -49.2000 C.3    46  LEU46       0.0270
     13  CG       107.2050   22.4420  -48.3740 C.3    46  LEU46       0.0019
     14  CD1      106.1480   21.6230  -47.6080 C.3    46  LEU46       0.0001
     15  CD2      107.8900   23.4730  -47.4400 C.3    46  LEU46       0.0001
     16  N        113.0430   25.9520  -43.8000 N.3    97  GLY97      -0.1210
     17  CA       112.3790   26.7310  -44.8370 C.3    97  GLY97       0.1956
     18  C        112.0820   28.1460  -44.3650 C.2    97  GLY97       0.2612
     19  O        111.7630   28.3580  -43.2060 O.2    97  GLY97      -0.2717
     20  N        112.2260   29.1240  -45.2430 N.am   98  GLY98      -0.1942
     21  CA       111.9450   30.5000  -44.8890 C.3    98  GLY98       0.2014
     22  C        112.9100   31.0940  -43.8770 C.2    98  GLY98       0.2638
     23  O        114.1320   31.1010  -44.0950 O.2    98  GLY98      -0.2714
     24  N        112.3620   31.6170  -42.7840 N.am   99  ASP99      -0.1971
     25  CA       113.1590   32.1250  -41.6890 C.3    99  ASP99       0.1709
     26  C        113.0100   31.1850  -40.5070 C.2    99  ASP99       0.2293
     27  O        111.9180   30.6590  -40.2940 O.2    99  ASP99      -0.2864
     28  CB       112.6570   33.4990  -41.2900 C.3    99  ASP99       0.1436
     29  CG       113.5110   34.1290  -40.2240 C.2    99  ASP99       0.3671
     30  OD1      113.1180   34.0460  -39.0340 O.co2  99  ASP99      -0.2456
     31  OD2      114.5980   34.7010  -40.4850 O.co2  99  ASP99      -0.2456
     32  N        109.9800   32.4120  -37.8060 N.3   102  VAL102     -0.1231
     33  CA       108.6280   32.7740  -38.2340 C.3   102  VAL102      0.1692
     34  C        107.8600   31.4840  -38.3980 C.2   102  VAL102      0.2592
     35  O        107.9670   30.8470  -39.4360 O.2   102  VAL102     -0.2718
     36  CB       108.6010   33.5280  -39.6060 C.3   102  VAL102      0.0266
     37  CG1      107.1780   33.7300  -40.0880 C.3   102  VAL102      0.0020
     38  CG2      109.3420   34.8710  -39.5440 C.3   102  VAL102      0.0020
     39  N        107.1030   31.0910  -37.3660 N.am  103  PHE103     -0.1962
     40  CA       106.4050   29.8050  -37.3450 C.3   103  PHE103      0.1771
     41  C        107.2540   28.6510  -37.9050 C.2   103  PHE103      0.2620
     42  O        106.8030   27.8590  -38.7160 O.2   103  PHE103     -0.2715
     43  CB       105.0650   29.9020  -38.0610 C.3   103  PHE103      0.0574
     44  CG       104.3030   31.1360  -37.7340 C.ar  103  PHE103     -0.0200
     45  CD1      104.1400   32.1420  -38.6960 C.ar  103  PHE103     -0.0042
     46  CD2      103.7400   31.3140  -36.4620 C.ar  103  PHE103     -0.0042
     47  CE1      103.4310   33.3150  -38.3890 C.ar  103  PHE103     -0.0003
     48  CE2      103.0170   32.4860  -36.1480 C.ar  103  PHE103     -0.0003
     49  CZ       102.8720   33.4890  -37.1130 C.ar  103  PHE103     -0.0000
     50  N        108.4820   28.5290  -37.4470 N.am  104  GLY104     -0.1954
     51  CA       109.4560   27.5210  -37.8550 C.3   104  GLY104      0.1869
     52  C        110.0590   26.6930  -36.7200 C.2   104  GLY104      0.2309
     53  O        111.0280   25.9760  -36.9500 O.2   104  GLY104     -0.2863
     54  N        111.2750   35.2350  -45.4850 N.3   127  THR127     -0.1203
     55  CA       110.0400   34.5380  -45.1520 C.3   127  THR127      0.1994
     56  C        108.9990   34.6100  -46.2830 C.2   127  THR127      0.2617
     57  O        108.9170   35.5880  -47.0370 O.2   127  THR127     -0.2717
     58  CB       109.4680   35.0420  -43.7830 C.3   127  THR127      0.1784
     59  OG1      108.3670   34.2100  -43.3990 O.3   127  THR127     -0.2211
     60  CG2      108.8060   36.3910  -43.8680 C.3   127  THR127      0.0376
     61  N        108.1830   33.5800  -46.3970 N.am  128  ALA128     -0.1979
     62  CA       107.2190   33.5270  -47.4920 C.3   128  ALA128      0.1597
     63  C        106.2510   34.7050  -47.4320 C.2   128  ALA128      0.2287
     64  O        105.8590   35.2390  -48.4670 O.2   128  ALA128     -0.2864
     65  CB       106.4750   32.2060  -47.4770 C.3   128  ALA128      0.0319
     66  N         99.9210   32.1700  -42.6150 N.3   178  TYR178     -0.1227
     67  CA       100.6740   30.9540  -42.8430 C.3   178  TYR178      0.1736
     68  C         99.8060   29.8000  -42.4120 C.2   178  TYR178      0.2595
     69  O         98.9540   29.9830  -41.5340 O.2   178  TYR178     -0.2718
     70  CB       101.9030   30.9370  -41.9460 C.3   178  TYR178      0.0548
     71  CG       102.9510   31.9400  -42.3030 C.ar  178  TYR178     -0.0200
     72  CD1      102.7790   33.3000  -42.0110 C.ar  178  TYR178     -0.0009
     73  CD2      104.1420   31.5310  -42.9000 C.ar  178  TYR178     -0.0009
     74  CE1      103.7630   34.2460  -42.3440 C.ar  178  TYR178      0.0417
     75  CE2      105.1350   32.4600  -43.2100 C.ar  178  TYR178      0.0417
     76  CZ       104.9380   33.8170  -42.9440 C.ar  178  TYR178      0.1957
     77  OH       105.9240   34.7200  -43.3000 O.3   178  TYR178     -0.2866
     78  N        100.0320   28.6210  -43.0240 N.am  179  MET179     -0.1979
     79  CA        99.3260   27.3680  -42.7120 C.3   179  MET179      0.1605
     80  C         97.8240   27.5230  -42.4770 C.2   179  MET179      0.2287
     81  O         97.2510   26.8630  -41.6040 O.2   179  MET179     -0.2864
     82  CB        99.9660   26.6850  -41.5090 C.3   179  MET179      0.0413
     83  CG       101.4230   26.3680  -41.6980 C.3   179  MET179      0.0598
     84  SD       102.1590   25.8540  -40.1760 S.3   179  MET179     -0.1393
     85  CE       102.8520   27.3930  -39.6130 C.3   179  MET179      0.0692
     86  N         98.8680   32.8350  -52.6600 N.3   205  VAL205     -0.1245
     87  CA       100.0780   32.6530  -53.4420 C.3   205  VAL205      0.1561
     88  C        100.6140   31.2760  -53.0870 C.2   205  VAL205      0.2260
     89  O        101.0420   31.0580  -51.9650 O.2   205  VAL205     -0.2867
     90  CB       101.1320   33.7670  -53.1320 C.3   205  VAL205      0.0252
     91  CG1      102.4050   33.5660  -53.9160 C.3   205  VAL205      0.0019
     92  CG2      100.5870   35.1640  -53.4100 C.3   205  VAL205      0.0019
     93  N        103.3760   28.1870  -53.6290 N.3   207  ASN207     -0.1225
     94  CA       104.7990   28.0720  -53.9660 C.3   207  ASN207      0.1785
     95  C        105.4030   29.3930  -54.4350 C.2   207  ASN207      0.2597
     96  O        106.0080   29.5000  -55.5100 O.2   207  ASN207     -0.2718
     97  CB       105.0520   26.9260  -54.9350 C.3   207  ASN207      0.1169
     98  CG       104.4090   25.6280  -54.4740 C.2   207  ASN207      0.2627
     99  OD1      104.9510   24.9240  -53.6240 O.2   207  ASN207     -0.2716
    100  ND2      103.2430   25.3140  -55.0240 N.am  207  ASN207     -0.0877
    101  N        105.2110   30.4150  -53.6100 N.am  208  ALA208     -0.1979
    102  CA       105.8580   31.6930  -53.8120 C.3   208  ALA208      0.1597
    103  C        107.3480   31.4790  -54.1270 C.2   208  ALA208      0.2287
    104  O        108.0180   30.6580  -53.4840 O.2   208  ALA208     -0.2864
    105  CB       105.6800   32.5500  -52.6000 C.3   208  ALA208      0.0319
    106  N        109.0340   30.1850  -56.7330 N.3   210  THR210     -0.1218
    107  CA       109.4800   28.9900  -57.4340 C.3   210  THR210      0.1862
    108  C        108.8510   29.0410  -58.8240 C.2   210  THR210      0.2287
    109  O        107.8840   29.7560  -59.0200 O.2   210  THR210     -0.2866
    110  CB       109.0210   27.7170  -56.6900 C.3   210  THR210      0.1770
    111  OG1      107.6060   27.5660  -56.8150 O.3   210  THR210     -0.2211
    112  CG2      109.2490   27.8430  -55.1830 C.3   210  THR210      0.0375
    113  N         98.5320   23.5660  -50.3940 N.3   234  PRO234     -0.2103
    114  CA        99.6640   24.1810  -49.6750 C.3   234  PRO234      0.1489
    115  C        100.9790   23.8060  -50.3580 C.2   234  PRO234      0.2418
    116  O        100.9460   22.8270  -51.0880 O.2   234  PRO234     -0.2734
    117  CB        99.6000   23.5030  -48.2950 C.3   234  PRO234      0.0282
    118  CG        98.2220   22.9360  -48.2040 C.3   234  PRO234      0.0208
    119  CD        97.9120   22.4850  -49.5960 C.3   234  PRO234      0.0893
    120  N        102.0950   24.5000  -50.1320 N.am  235  PRO235     -0.2718
    121  CA       102.1760   25.6570  -49.2320 C.3   235  PRO235      0.1535
    122  C        101.7380   26.9410  -49.9140 C.2   235  PRO235      0.2598
    123  O        102.0710   27.2080  -51.0800 O.2   235  PRO235     -0.2715
    124  CB       103.6700   25.7430  -48.9070 C.3   235  PRO235      0.0310
    125  CG       104.3700   25.1750  -50.1410 C.3   235  PRO235      0.0237
    126  CD       103.3990   24.1770  -50.7420 C.3   235  PRO235      0.0939
    127  N        100.9970   27.7390  -49.1680 N.am  236  ALA236     -0.1964
    128  CA       100.4630   28.9780  -49.6780 C.3   236  ALA236      0.1728
    129  C        100.5610   30.0100  -48.5970 C.2   236  ALA236      0.2616
    130  O        100.5030   29.6800  -47.4110 O.2   236  ALA236     -0.2715
    131  CB        99.0020   28.7940  -50.0980 C.3   236  ALA236      0.0334
    132  N        100.7230   31.2580  -49.0020 N.am  237  ILE237     -0.1977
    133  CA       100.4730   32.3770  -48.1040 C.3   237  ILE237      0.1596
    134  C         99.1260   32.9700  -48.5200 C.2   237  ILE237      0.2287
    135  O         98.8470   33.1370  -49.7140 O.2   237  ILE237     -0.2864
    136  CB       101.5880   33.4410  -48.2320 C.3   237  ILE237      0.0276
    137  CG1      102.9300   32.8990  -47.7110 C.3   237  ILE237      0.0022
    138  CG2      101.1940   34.7190  -47.5290 C.3   237  ILE237      0.0022
    139  CD1      103.0120   32.6760  -46.1990 C.3   237  ILE237      0.0001
@<TRIPOS>BOND
     1   109   108    2
     2   108   107    1
     3   107   106    1
     4   107   110    1
     5   111   110    1
     6   110   112    1
     7    96    95    2
     8   100    98   am
     9    97    98    1
    10    97    94    1
    11    98    99    2
    12    95    94    1
    13    95   101   am
    14   103   102    1
    15   103   104    2
    16    94    93    1
    17    91    90    1
    18   102   101    1
    19   102   105    1
    20    87    90    1
    21    87    88    1
    22    87    86    1
    23    92    90    1
    24    88    89    2
    25   116   115    2
    26   123   122    2
    27     4     3    2
    28     3     2    1
    29   126   125    1
    30   126   120    1
    31     6     5    1
    32     6     7    1
    33    11    10    2
    34   113   114    1
    35   113   119    1
    36   115   120   am
    37   115   114    1
    38   125   124    1
    39   120   121    1
    40   131   128    1
    41     5     2    1
    42   122   121    1
    43   122   127   am
    44   135   134    2
    45   128   127    1
    46   128   129    1
    47   114   117    1
    48     2     1    1
    49   119   118    1
    50     7     1    1
    51    10     9    1
    52   121   124    1
    53    12     9    1
    54    12    13    1
    55   132   129   am
    56   132   133    1
    57     9     8    1
    58   129   130    2
    59   134   133    1
    60    64    63    2
    61    13    14    1
    62    13    15    1
    63   117   118    1
    64   136   133    1
    65   136   137    1
    66   136   138    1
    67   137   139    1
    68    62    65    1
    69    62    63    1
    70    62    61    1
    71    57    56    2
    72    61    56   am
    73    56    55    1
    74    54    55    1
    75    20    21    1
    76    20    18   am
    77    55    58    1
    78    21    22    1
    79    17    18    1
    80    17    16    1
    81    18    19    2
    82    23    22    2
    83    22    24   am
    84    60    58    1
    85    58    59    1
    86    77    76    1
    87    75    76   ar
    88    75    73   ar
    89    78    79    1
    90    78    68   am
    91    76    74   ar
    92    73    71   ar
    93    67    66    1
    94    67    68    1
    95    67    70    1
    96    24    25    1
    97    79    80    1
    98    79    82    1
    99    80    81    2
   100    68    69    2
   101    74    72   ar
   102    71    72   ar
   103    71    70    1
   104    83    82    1
   105    83    84    1
   106    25    28    1
   107    25    26    1
   108    28    29    1
   109    26    27    2
   110    31    29   ar
   111    29    30   ar
   112    84    85    1
   113    37    36    1
   114    36    38    1
   115    36    33    1
   116    35    34    2
   117    42    41    2
   118    45    47   ar
   119    45    44   ar
   120    34    33    1
   121    34    39   am
   122    47    49   ar
   123    33    32    1
   124    43    44    1
   125    43    40    1
   126    41    50   am
   127    41    40    1
   128    51    50    1
   129    51    52    1
   130    44    46   ar
   131    39    40    1
   132    49    48   ar
   133    53    52    2
   134    46    48   ar
