@<TRIPOS>MOLECULE
tmp/1s4eI01.pdb
 176 171 0 0 0
SMALL
GASTEIGER

@<TRIPOS>ATOM
      1  N        112.7520  158.6760   65.4950 N.3    10  ARG10      -0.1245
      2  CA       111.3960  158.7510   66.0210 C.3    10  ARG10       0.1563
      3  C        111.3170  158.9480   67.4940 C.2    10  ARG10       0.2260
      4  O        112.2670  158.6980   68.2260 O.2    10  ARG10      -0.2867
      5  CB       110.6050  157.4950   65.6440 C.3    10  ARG10       0.0307
      6  CG       110.9390  156.2770   66.4330 C.3    10  ARG10       0.0489
      7  CD       110.2940  156.2390   67.7650 C.3    10  ARG10       0.2205
      8  NE       110.7580  155.1000   68.5120 N.pl3  10  ARG10      -0.0865
      9  CZ       111.6870  155.1250   69.4520 C.cat  10  ARG10       0.5346
     10  NH1      112.3090  156.2380   69.8240 N.pl3  10  ARG10       0.1354
     11  NH2      111.9560  154.0160   70.0760 N.pl3  10  ARG10       0.1354
     12  N        119.1160  159.5120   59.2820 N.3    32  THR32      -0.1218
     13  CA       120.1560  158.7680   58.6060 C.3    32  THR32       0.1862
     14  C        120.0100  159.0030   57.1030 C.2    32  THR32       0.2287
     15  O        118.9190  158.8020   56.5540 O.2    32  THR32      -0.2866
     16  CB       119.9170  157.3080   58.8860 C.3    32  THR32       0.1770
     17  OG1      119.9380  157.1190   60.2970 O.3    32  THR32      -0.2211
     18  CG2      121.0470  156.4360   58.3070 C.3    32  THR32       0.0375
     19  N        130.5090  154.0310   56.8870 N.3    46  SER46      -0.1217
     20  CA       129.7330  154.7060   57.9210 C.3    46  SER46       0.1889
     21  C        130.5370  155.8510   58.4970 C.2    46  SER46       0.2288
     22  O        131.5110  155.6360   59.2160 O.2    46  SER46      -0.2866
     23  CB       129.3620  153.7390   59.0480 C.3    46  SER46       0.2089
     24  OG       128.6890  154.4000   60.1190 O.3    46  SER46      -0.2183
     25  N        129.6880  157.7500   60.9760 N.3    48  HIS48      -0.1226
     26  CA       129.7340  157.6530   62.4390 C.3    48  HIS48       0.1752
     27  C        130.8770  156.7810   62.9980 C.2    48  HIS48       0.2596
     28  O        131.5690  157.1940   63.9330 O.2    48  HIS48      -0.2718
     29  CB       128.4210  157.1630   63.0210 C.3    48  HIS48       0.0759
     30  CG       128.4770  156.9680   64.4940 C.ar   48  HIS48       0.0818
     31  ND1      128.0580  157.9280   65.3830 N.ar   48  HIS48      -0.2268
     32  CD2      128.9540  155.9500   65.2440 C.ar   48  HIS48       0.1154
     33  CE1      128.2470  157.5060   66.6190 C.ar   48  HIS48       0.1986
     34  NE2      128.7890  156.3080   66.5650 N.ar   48  HIS48      -0.2212
     35  N        131.0620  155.5810   62.4480 N.am   49  PHE49      -0.1976
     36  CA       132.1330  154.6960   62.8970 C.3    49  PHE49       0.1639
     37  C        133.4590  154.9240   62.1820 C.2    49  PHE49       0.2290
     38  O        134.4330  154.3210   62.5860 O.2    49  PHE49      -0.2864
     39  CB       131.7270  153.2230   62.7750 C.3    49  PHE49       0.0560
     40  CG       130.5950  152.8250   63.6870 C.ar   49  PHE49      -0.0200
     41  CD1      129.2730  152.8060   63.2350 C.ar   49  PHE49      -0.0042
     42  CD2      130.8370  152.4970   64.9990 C.ar   49  PHE49      -0.0042
     43  CE1      128.2180  152.4440   64.1230 C.ar   49  PHE49      -0.0003
     44  CE2      129.8130  152.1450   65.8630 C.ar   49  PHE49      -0.0003
     45  CZ       128.5140  152.1120   65.4380 C.ar   49  PHE49      -0.0000
     46  N        127.7720  146.6580   63.1070 N.3    66  TRP66      -0.1241
     47  CA       126.6910  147.4290   62.5250 C.3    66  TRP66       0.1605
     48  C        126.2350  146.9170   61.1850 C.2    66  TRP66       0.2264
     49  O        125.0820  147.1070   60.8080 O.2    66  TRP66      -0.2867
     50  CB       127.0230  148.9140   62.4580 C.3    66  TRP66       0.0550
     51  CG       128.1870  149.3200   61.6730 C.ar   66  TRP66       0.0003
     52  CD1      129.4030  149.6360   62.1530 C.ar   66  TRP66       0.0946
     53  CD2      128.2400  149.5480   60.2650 C.ar   66  TRP66       0.0152
     54  NE1      130.2480  150.0030   61.1320 N.ar   66  TRP66      -0.2442
     55  CE2      129.5460  149.9810   59.9600 C.ar   66  TRP66       0.0810
     56  CE3      127.3120  149.4360   59.2220 C.ar   66  TRP66       0.0012
     57  CZ2      129.9470  150.2980   58.6720 C.ar   66  TRP66       0.0191
     58  CZ3      127.7060  149.7430   57.9510 C.ar   66  TRP66       0.0001
     59  CH2      129.0250  150.1610   57.6790 C.ar   66  TRP66       0.0015
     60  N        122.7220  144.9820   60.4860 N.3    69  TYR69      -0.1241
     61  CA       121.4780  145.6210   60.1170 C.3    69  TYR69       0.1605
     62  C        121.3180  145.6410   58.6190 C.2    69  TYR69       0.2264
     63  O        120.2080  145.4860   58.1140 O.2    69  TYR69      -0.2867
     64  CB       121.4150  147.0530   60.6730 C.3    69  TYR69       0.0534
     65  CG       121.3790  147.0770   62.1850 C.ar   69  TYR69      -0.0201
     66  CD1      122.5370  147.2070   62.9220 C.ar   69  TYR69      -0.0009
     67  CD2      120.2030  146.8750   62.8640 C.ar   69  TYR69      -0.0009
     68  CE1      122.5150  147.1920   64.3190 C.ar   69  TYR69       0.0417
     69  CE2      120.1510  146.8700   64.2230 C.ar   69  TYR69       0.0417
     70  CZ       121.3130  147.0240   64.9690 C.ar   69  TYR69       0.1957
     71  OH       121.2680  146.9890   66.3520 O.3    69  TYR69      -0.2866
     72  N        127.0050  156.2440   54.5370 N.3    91  ILE91      -0.1231
     73  CA       125.9350  156.4650   55.5200 C.3    91  ILE91       0.1692
     74  C        126.3120  157.6720   56.3750 C.2    91  ILE91       0.2592
     75  O        127.3390  157.6830   57.0560 O.2    91  ILE91      -0.2718
     76  CB       125.7620  155.2230   56.3860 C.3    91  ILE91       0.0266
     77  CG1      125.4830  154.0200   55.4930 C.3    91  ILE91       0.0019
     78  CG2      124.5950  155.3580   57.3990 C.3    91  ILE91       0.0020
     79  CD1      126.1180  152.7660   55.9860 C.3    91  ILE91       0.0001
     80  N        125.4940  158.7170   56.2910 N.am   92  THR92      -0.1953
     81  CA       125.6950  159.9210   57.0680 C.3    92  THR92       0.1897
     82  C        124.3990  160.2720   57.7350 C.2    92  THR92       0.2313
     83  O        123.5510  159.3880   57.9390 O.2    92  THR92      -0.2863
     84  CB       126.1820  161.0990   56.1990 C.3    92  THR92       0.1794
     85  OG1      125.1610  161.5040   55.2790 O.3    92  THR92      -0.2208
     86  CG2      127.3850  160.7180   55.3440 C.3    92  THR92       0.0378
     87  N        121.5030  160.8600   66.4780 N.3    96  PRO96      -0.2102
     88  CA       122.2990  160.1650   67.4980 C.3    96  PRO96       0.1504
     89  C        122.1030  158.6570   67.4740 C.2    96  PRO96       0.2576
     90  O        121.0060  158.2010   67.2030 O.2    96  PRO96      -0.2718
     91  CB       121.7480  160.7400   68.7810 C.3    96  PRO96       0.0282
     92  CG       121.3640  162.1270   68.3660 C.3    96  PRO96       0.0208
     93  CD       120.6430  161.9080   67.0550 C.3    96  PRO96       0.0893
     94  N        123.1580  157.9050   67.7370 N.am   97  LEU97      -0.1966
     95  CA       123.0950  156.4470   67.7470 C.3    97  LEU97       0.1728
     96  C        123.0990  156.0010   69.1680 C.2    97  LEU97       0.2617
     97  O        123.9130  156.4290   69.9450 O.2    97  LEU97      -0.2715
     98  CB       124.3080  155.7900   67.0640 C.3    97  LEU97       0.0311
     99  CG       124.2170  155.5850   65.5510 C.3    97  LEU97       0.0022
    100  CD1      124.2460  156.9300   64.8390 C.3    97  LEU97       0.0001
    101  CD2      125.3530  154.7210   65.0190 C.3    97  LEU97       0.0001
    102  N        122.2240  155.0670   69.4750 N.am   98  GLY98      -0.1940
    103  CA       122.2140  154.4160   70.7510 C.3    98  GLY98       0.2014
    104  C        121.6350  155.2960   71.8010 C.2    98  GLY98       0.2639
    105  O        122.0150  155.1380   72.9500 O.2    98  GLY98      -0.2714
    106  N        120.7020  156.1810   71.4360 N.am   99  ALA99      -0.1963
    107  CA       120.2120  157.2080   72.3620 C.3    99  ALA99       0.1728
    108  C        118.7070  157.2360   72.5700 C.2    99  ALA99       0.2617
    109  O        118.1890  158.1470   73.2070 O.2    99  ALA99      -0.2715
    110  CB       120.7070  158.6300   71.9030 C.3    99  ALA99       0.0334
    111  N        117.9940  156.2650   72.0490 N.am  100  GLY100     -0.1940
    112  CA       116.5590  156.2280   72.2380 C.3   100  GLY100      0.2014
    113  C        115.7400  156.7830   71.0900 C.2   100  GLY100      0.2639
    114  O        114.5270  156.7560   71.1680 O.2   100  GLY100     -0.2714
    115  N        116.3700  157.2960   70.0350 N.am  101  LEU101     -0.1963
    116  CA       115.6230  157.9210   68.9450 C.3   101  LEU101      0.1728
    117  C        115.4760  157.0090   67.7230 C.2   101  LEU101      0.2617
    118  O        115.0940  157.4410   66.6460 O.2   101  LEU101     -0.2715
    119  CB       116.2700  159.2320   68.5760 C.3   101  LEU101      0.0311
    120  CG       116.6790  160.0230   69.8010 C.3   101  LEU101      0.0022
    121  CD1      117.4180  161.2580   69.3370 C.3   101  LEU101      0.0001
    122  CD2      115.4770  160.3570   70.6530 C.3   101  LEU101      0.0001
    123  N        115.7470  155.7310   67.9480 N.am  102  SER102     -0.1936
    124  CA       115.6530  154.6440   66.9630 C.3   102  SER102      0.2055
    125  C        116.4860  154.7830   65.6910 C.2   102  SER102      0.2644
    126  O        115.9530  154.6530   64.5780 O.2   102  SER102     -0.2714
    127  CB       114.1950  154.3480   66.6100 C.3   102  SER102      0.2130
    128  OG       114.1380  153.1020   65.9090 O.3   102  SER102     -0.2179
    129  N        117.7890  155.0220   65.8540 N.am  103  SER103     -0.1935
    130  CA       118.7390  154.8580   64.7330 C.3   103  SER103      0.2055
    131  C        118.6650  153.4670   64.0780 C.2   103  SER103      0.2643
    132  O        118.8340  153.3800   62.8540 O.2   103  SER103     -0.2714
    133  CB       120.1680  155.1400   65.1490 C.3   103  SER103      0.2130
    134  OG       120.5000  154.3770   66.2880 O.3   103  SER103     -0.2179
    135  N        118.3950  152.4200   64.8810 N.am  104  SER104     -0.1949
    136  CA       118.0690  151.0870   64.3890 C.3   104  SER104      0.1924
    137  C        117.0320  151.1240   63.2360 C.2   104  SER104      0.2314
    138  O        117.3210  150.7300   62.0940 O.2   104  SER104     -0.2863
    139  CB       117.5600  150.0990   65.4880 C.3   104  SER104      0.2116
    140  OG       117.0910  150.6350   66.7440 O.3   104  SER104     -0.2180
    141  N        117.9150  153.2760   60.3430 N.3   107  PHE107     -0.1241
    142  CA       118.9640  152.7100   59.4980 C.3   107  PHE107      0.1605
    143  C        118.4260  151.5480   58.6150 C.2   107  PHE107      0.2264
    144  O        118.6760  151.5140   57.4320 O.2   107  PHE107     -0.2867
    145  CB       120.1360  152.2580   60.3980 C.3   107  PHE107      0.0534
    146  CG       121.3570  151.7600   59.6540 C.ar  107  PHE107     -0.0203
    147  CD1      122.0500  150.6620   60.1180 C.ar  107  PHE107     -0.0042
    148  CD2      121.8270  152.3960   58.5390 C.ar  107  PHE107     -0.0042
    149  CE1      123.1840  150.2100   59.4550 C.ar  107  PHE107     -0.0003
    150  CE2      122.9410  151.9440   57.8820 C.ar  107  PHE107     -0.0003
    151  CZ       123.6220  150.8610   58.3310 C.ar  107  PHE107     -0.0000
    152  N        115.0890  142.9800   62.0470 N.3   136  GLU136     -0.1245
    153  CA       115.6010  143.2450   63.3570 C.3   136  GLU136      0.1567
    154  C        115.3020  142.1300   64.3650 C.2   136  GLU136      0.2260
    155  O        116.1330  141.8560   65.2220 O.2   136  GLU136     -0.2867
    156  CB       115.0980  144.5970   63.8610 C.3   136  GLU136      0.0388
    157  CG       115.5570  144.9070   65.2670 C.3   136  GLU136      0.1160
    158  CD       115.7580  146.3480   65.5580 C.2   136  GLU136      0.3649
    159  OE1      115.3160  147.2340   64.7870 O.co2 136  GLU136     -0.2457
    160  OE2      116.3790  146.6060   66.6190 O.co2 136  GLU136     -0.2457
    161  N        117.2070  141.2930   67.9640 N.3   142  VAL142     -0.1245
    162  CA       116.6450  142.2720   68.9410 C.3   142  VAL142      0.1561
    163  C        115.0890  142.3370   68.9240 C.2   142  VAL142      0.2260
    164  O        114.4530  142.6320   67.8760 O.2   142  VAL142     -0.2867
    165  CB       117.2320  143.6730   68.6860 C.3   142  VAL142      0.0252
    166  CG1      116.8760  144.6050   69.8070 C.3   142  VAL142      0.0019
    167  CG2      118.7480  143.5950   68.5440 C.3   142  VAL142      0.0019
    168  N        123.4180  154.8950   78.2810 N.3   189  LYS189     -0.1245
    169  CA       123.0330  153.6010   77.6780 C.3   189  LYS189      0.1561
    170  C        123.5630  152.5040   78.5840 C.2   189  LYS189      0.2260
    171  O        124.7350  152.1530   78.4550 O.2   189  LYS189     -0.2867
    172  CB       123.6820  153.4100   76.2940 C.3   189  LYS189      0.0271
    173  CG       123.3210  152.1600   75.5420 C.3   189  LYS189      0.0035
    174  CD       121.9170  152.2730   75.0410 C.3   189  LYS189      0.0206
    175  CE       121.6090  151.1630   74.0320 C.3   189  LYS189      0.1093
    176  NZ       121.4560  149.8700   74.6750 N.3   189  LYS189     -0.1314
@<TRIPOS>BOND
     1    72    73    1
     2    85    84    1
     3    86    84    1
     4    77    79    1
     5    77    76    1
     6    73    74    1
     7    73    76    1
     8    84    81    1
     9    80    74   am
    10    80    81    1
    11    74    75    2
    12    76    78    1
    13    15    14    2
    14    19    20    1
    15    81    82    1
    16    14    13    1
    17   144   143    2
    18    59    58   ar
    19    59    57   ar
    20    82    83    2
    21   150   151   ar
    22   150   148   ar
    23    20    21    1
    24    20    23    1
    25    58    56   ar
    26    63    62    2
    27    18    16    1
    28   151   149   ar
    29    21    22    2
    30   148   146   ar
    31    13    16    1
    32    13    12    1
    33   143   142    1
    34    62    61    1
    35    57    55   ar
    36    16    17    1
    37    23    24    1
    38    56    53   ar
    39   149   147   ar
    40   142   141    1
    41   142   145    1
    42   146   147   ar
    43   146   145    1
    44    55    53   ar
    45    55    54   ar
    46    61    60    1
    47    61    64    1
    48    53    51   ar
    49    64    65    1
    50    49    48    2
    51    25    26    1
    52    54    52   ar
    53    48    47    1
    54    51    52   ar
    55    51    50    1
    56   152   153    1
    57   138   137    2
    58    37    38    2
    59    37    36    1
    60    65    67   ar
    61    65    66   ar
    62    26    27    1
    63    26    29    1
    64    35    36    1
    65    35    27   am
    66    50    47    1
    67    47    46    1
    68    39    36    1
    69    39    40    1
    70   132   131    2
    71    67    69   ar
    72    66    68   ar
    73    27    28    2
    74    29    30    1
    75    41    40   ar
    76    41    43   ar
    77   137   136    1
    78   153   156    1
    79   153   154    1
    80    40    42   ar
    81   156   157    1
    82   131   130    1
    83   131   135   am
    84    43    45   ar
    85    69    70   ar
    86    68    70   ar
    87   154   155    2
    88   136   135    1
    89   136   139    1
    90    30    32   ar
    91    30    31   ar
    92   126   125    2
    93   130   133    1
    94   130   129    1
    95   159   158   ar
    96   100    99    1
    97    70    71    1
    98    42    44   ar
    99   101    99    1
   100   133   134    1
   101    32    34   ar
   102   157   158    1
   103    31    33   ar
   104    45    44   ar
   105   139   140    1
   106     1     2    1
   107    99    98    1
   108   158   160   ar
   109     5     2    1
   110     5     6    1
   111   125   129   am
   112   125   124    1
   113   128   127    1
   114     2     3    1
   115     6     7    1
   116    87    93    1
   117    87    88    1
   118    34    33   ar
   119   127   124    1
   120   118   117    2
   121   124   123    1
   122    93    92    1
   123    98    95    1
   124    90    89    2
   125    89    88    1
   126    89    94   am
   127     3     4    2
   128    88    91    1
   129   117   123   am
   130   117   116    1
   131    94    95    1
   132    95    96    1
   133     7     8    1
   134   164   163    2
   135   161   162    1
   136    92    91    1
   137     8     9    2
   138   167   165    1
   139   119   116    1
   140   119   120    1
   141   165   162    1
   142   165   166    1
   143   163   162    1
   144   116   115    1
   145    96   102   am
   146    96    97    2
   147   121   120    1
   148     9    10    1
   149     9    11    1
   150   102   103    1
   151   120   122    1
   152   115   113   am
   153   103   104    1
   154   113   114    2
   155   113   112    1
   156   106   104   am
   157   106   107    1
   158   104   105    2
   159   110   107    1
   160   111   112    1
   161   111   108   am
   162   107   108    1
   163   108   109    2
   164   175   176    1
   165   175   174    1
   166   174   173    1
   167   173   172    1
   168   172   169    1
   169   169   168    1
   170   169   170    1
   171   171   170    2
