@<TRIPOS>MOLECULE
tmp/1s4eI00.pdb
 108 105 0 0 0
SMALL
GASTEIGER

@<TRIPOS>ATOM
      1  N        112.7520  158.6760   65.4950 N.3    10  ARG10      -0.1245
      2  CA       111.3960  158.7510   66.0210 C.3    10  ARG10       0.1563
      3  C        111.3170  158.9480   67.4940 C.2    10  ARG10       0.2260
      4  O        112.2670  158.6980   68.2260 O.2    10  ARG10      -0.2867
      5  CB       110.6050  157.4950   65.6440 C.3    10  ARG10       0.0307
      6  CG       110.9390  156.2770   66.4330 C.3    10  ARG10       0.0489
      7  CD       110.2940  156.2390   67.7650 C.3    10  ARG10       0.2205
      8  NE       110.7580  155.1000   68.5120 N.pl3  10  ARG10      -0.0865
      9  CZ       111.6870  155.1250   69.4520 C.cat  10  ARG10       0.5346
     10  NH1      112.3090  156.2380   69.8240 N.pl3  10  ARG10       0.1354
     11  NH2      111.9560  154.0160   70.0760 N.pl3  10  ARG10       0.1354
     12  N        101.9260  155.9740   75.0300 N.3    15  GLY15      -0.1210
     13  CA       101.8850  154.5740   74.6340 C.3    15  GLY15       0.1956
     14  C        103.2260  153.8200   74.7300 C.2    15  GLY15       0.2612
     15  O        103.7580  153.3420   73.7300 O.2    15  GLY15      -0.2717
     16  N        103.7480  153.6530   75.9390 N.am   16  GLU16      -0.1965
     17  CA       105.0640  153.0760   76.1520 C.3    16  GLU16       0.1733
     18  C        104.9410  151.7220   76.7920 C.2    16  GLU16       0.2616
     19  O        104.1520  151.5640   77.7170 O.2    16  GLU16      -0.2715
     20  CB       105.8930  153.9550   77.0820 C.3    16  GLU16       0.0429
     21  CG       107.3590  153.9640   76.7040 C.3    16  GLU16       0.1163
     22  CD       107.5770  154.7080   75.4180 C.2    16  GLU16       0.3649
     23  OE1      107.5520  154.0520   74.3500 O.co2  16  GLU16      -0.2457
     24  OE2      107.7550  155.9450   75.4970 O.co2  16  GLU16      -0.2457
     25  N        105.7420  150.7670   76.3080 N.am   17  HIS17      -0.1959
     26  CA       105.7020  149.3830   76.7690 C.3    17  HIS17       0.1787
     27  C        104.3130  148.8580   76.6310 C.2    17  HIS17       0.2621
     28  O        103.7720  148.2120   77.5030 O.2    17  HIS17      -0.2715
     29  CB       106.2390  149.2530   78.1780 C.3    17  HIS17       0.0785
     30  CG       107.7000  149.5180   78.2450 C.ar   17  HIS17       0.0821
     31  ND1      108.6330  148.5420   78.0000 N.ar   17  HIS17      -0.2267
     32  CD2      108.3860  150.6690   78.4270 C.ar   17  HIS17       0.1154
     33  CE1      109.8370  149.0780   78.0740 C.ar   17  HIS17       0.1986
     34  NE2      109.7160  150.3650   78.3400 N.ar   17  HIS17      -0.2212
     35  N        103.7730  149.1420   75.4640 N.am   18  THR18      -0.1937
     36  CA       102.4480  148.7730   75.1070 C.3    18  THR18       0.2028
     37  C        102.3740  147.9240   73.8200 C.2    18  THR18       0.2642
     38  O        101.3750  147.2560   73.6130 O.2    18  THR18      -0.2714
     39  CB       101.7370  150.0630   75.0090 C.3    18  THR18       0.1808
     40  OG1      100.5870  150.0070   75.8430 O.3    18  THR18      -0.2208
     41  CG2      101.2610  150.3740   73.6710 C.3    18  THR18       0.0379
     42  N        103.4170  147.9040   72.9870 N.am   19  ASP19      -0.1957
     43  CA       103.2790  147.3360   71.6850 C.3    19  ASP19       0.1840
     44  C        103.5420  145.8310   71.6330 C.2    19  ASP19       0.2622
     45  O        103.0130  145.1160   70.7700 O.2    19  ASP19      -0.2715
     46  CB       104.0880  148.1310   70.6530 C.3    19  ASP19       0.1450
     47  CG       105.6000  148.0890   70.8790 C.2    19  ASP19       0.3671
     48  OD1      106.3410  148.4940   69.9390 O.co2  19  ASP19      -0.2456
     49  OD2      106.1210  147.6800   71.9480 O.co2  19  ASP19      -0.2456
     50  N        104.3330  145.3240   72.5510 N.am   20  TYR20      -0.1974
     51  CA       104.4580  143.8810   72.6980 C.3    20  TYR20       0.1639
     52  C        103.2520  143.1730   73.3790 C.2    20  TYR20       0.2290
     53  O        103.2800  141.9670   73.5490 O.2    20  TYR20      -0.2864
     54  CB       105.7880  143.4850   73.3750 C.3    20  TYR20       0.0560
     55  CG       106.1810  144.1900   74.6400 C.ar   20  TYR20      -0.0198
     56  CD1      105.7820  143.7230   75.8570 C.ar   20  TYR20      -0.0009
     57  CD2      106.9790  145.3190   74.6150 C.ar   20  TYR20      -0.0009
     58  CE1      106.1640  144.3920   77.0800 C.ar   20  TYR20       0.0417
     59  CE2      107.3350  145.9930   75.7730 C.ar   20  TYR20       0.0417
     60  CZ       106.9400  145.5220   77.0110 C.ar   20  TYR20       0.1957
     61  OH       107.3050  146.1880   78.1620 O.3    20  TYR20      -0.2866
     62  N        111.8890  143.7950   69.1330 N.3   144  CYS144     -0.1221
     63  CA       111.1650  145.0260   69.3030 C.3   144  CYS144      0.1808
     64  C        109.7540  144.8450   68.8250 C.2   144  CYS144      0.2601
     65  O        109.4610  143.9360   68.0310 O.2   144  CYS144     -0.2717
     66  CB       111.8350  146.1260   68.5200 C.3   144  CYS144      0.0970
     67  SG       111.9600  145.7610   66.7800 S.3   144  CYS144     -0.0800
     68  N        108.8690  145.6950   69.3170 N.am  145  GLY145     -0.1957
     69  CA       107.5500  145.8320   68.7460 C.3   145  GLY145      0.1869
     70  C        107.5860  146.4570   67.3750 C.2   145  GLY145      0.2309
     71  O        108.6070  146.4460   66.6910 O.2   145  GLY145     -0.2863
     72  N        106.3370  149.7210   66.9980 N.3   147  LEU147     -0.1231
     73  CA       106.3760  151.1710   67.2410 C.3   147  LEU147      0.1693
     74  C        107.4060  151.8970   66.3530 C.2   147  LEU147      0.2592
     75  O        107.0390  152.7600   65.5630 O.2   147  LEU147     -0.2718
     76  CB       106.6980  151.4000   68.7150 C.3   147  LEU147      0.0284
     77  CG       106.5380  152.7060   69.4910 C.3   147  LEU147      0.0019
     78  CD1      107.8270  153.1060   70.1870 C.3   147  LEU147      0.0001
     79  CD2      106.0210  153.8150   68.6290 C.3   147  LEU147      0.0001
     80  N        108.6800  151.4920   66.4530 N.am  148  ASP148     -0.1974
     81  CA       109.8010  152.2160   65.8400 C.3   148  ASP148      0.1709
     82  C        109.7320  152.2270   64.3130 C.2   148  ASP148      0.2293
     83  O        109.8100  153.2850   63.6900 O.2   148  ASP148     -0.2864
     84  CB       111.1330  151.5720   66.2460 C.3   148  ASP148      0.1436
     85  CG       111.4600  151.7260   67.7290 C.2   148  ASP148      0.3671
     86  OD1      110.6640  152.3760   68.4460 O.co2 148  ASP148     -0.2456
     87  OD2      112.5130  151.2250   68.2650 O.co2 148  ASP148     -0.2456
     88  N        114.2630  144.9810   79.1260 N.3   197  TYR197     -0.1241
     89  CA       113.2120  145.0550   78.1420 C.3   197  TYR197      0.1605
     90  C        112.6830  143.6950   77.8600 C.2   197  TYR197      0.2264
     91  O        111.4900  143.4920   77.7230 O.2   197  TYR197     -0.2867
     92  CB       113.7630  145.6330   76.8470 C.3   197  TYR197      0.0534
     93  CG       112.7450  145.7800   75.7690 C.ar  197  TYR197     -0.0201
     94  CD1      111.9070  146.8750   75.7250 C.ar  197  TYR197     -0.0009
     95  CD2      112.5940  144.8100   74.8100 C.ar  197  TYR197     -0.0009
     96  CE1      110.9560  147.0150   74.7090 C.ar  197  TYR197      0.0417
     97  CE2      111.6840  144.9270   73.8310 C.ar  197  TYR197      0.0417
     98  CZ       110.8660  146.0310   73.7710 C.ar  197  TYR197      0.1957
     99  OH       109.9320  146.1090   72.7980 O.3   197  TYR197     -0.2866
    100  N        110.5430  155.9820   74.4160 N.3   300  GLY300     -0.1210
    101  CA       111.1910  154.7160   74.1810 C.3   300  GLY300      0.1956
    102  C        111.2520  153.8250   75.4020 C.2   300  GLY300      0.2611
    103  O        110.4150  153.8830   76.2440 O.2   300  GLY300     -0.2717
    104  N        112.2580  152.9810   75.4790 N.am  301  ALA301     -0.1979
    105  CA       112.2820  151.9050   76.4460 C.3   301  ALA301      0.1597
    106  C        112.5750  152.3580   77.8610 C.2   301  ALA301      0.2287
    107  O        112.0710  151.7540   78.8230 O.2   301  ALA301     -0.2864
    108  CB       113.2900  150.8780   76.0490 C.3   301  ALA301      0.0319
@<TRIPOS>BOND
     1    83    82    2
     2    82    81    1
     3     1     2    1
     4    75    74    2
     5     5     2    1
     6     5     6    1
     7    81    84    1
     8    81    80    1
     9     2     3    1
    10    84    85    1
    11    74    80   am
    12    74    73    1
    13     6     7    1
    14    71    70    2
    15    67    66    1
    16    72    73    1
    17    73    76    1
    18    70    69    1
    19     3     4    2
    20    85    87   ar
    21    85    86   ar
    22     7     8    1
    23    65    64    2
    24     8     9    2
    25    66    63    1
    26    79    77    1
    27    76    77    1
    28    69    68    1
    29    64    63    1
    30    64    68   am
    31    62    63    1
    32     9    10    1
    33     9    11    1
    34    77    78    1
    35    48    47   ar
    36    46    47    1
    37    46    43    1
    38    45    44    2
    39    47    49   ar
    40    44    43    1
    41    44    50   am
    42    43    42    1
    43    50    51    1
    44    51    54    1
    45    51    52    1
    46    99    98    1
    47    42    37   am
    48    54    55    1
    49    52    53    2
    50    38    37    2
    51    41    39    1
    52    15    14    2
    53    98    97   ar
    54    98    96   ar
    55    37    36    1
    56    97    95   ar
    57   101   100    1
    58   101   102    1
    59    23    22   ar
    60    57    55   ar
    61    57    59   ar
    62    13    14    1
    63    13    12    1
    64    55    56   ar
    65    96    94   ar
    66    14    16   am
    67    95    93   ar
    68    39    36    1
    69    39    40    1
    70    36    35    1
    71   102   104   am
    72   102   103    2
    73    22    24   ar
    74    22    21    1
    75    35    27   am
    76   104   105    1
    77    94    93   ar
    78    93    92    1
    79    59    60   ar
    80    56    58   ar
    81    16    17    1
    82   108   105    1
    83    17    18    1
    84    17    20    1
    85    25    26    1
    86    25    18   am
    87   105   106    1
    88    27    26    1
    89    27    28    2
    90    21    20    1
    91    26    29    1
    92    18    19    2
    93    92    89    1
    94    60    58   ar
    95    60    61    1
    96    91    90    2
    97    90    89    1
    98   106   107    2
    99    31    33   ar
   100    31    30   ar
   101    33    34   ar
   102    89    88    1
   103    29    30    1
   104    30    32   ar
   105    34    32   ar
