@<TRIPOS>MOLECULE
tmp/1s4mA00.pdb
 123 114 0 0 0
SMALL
GASTEIGER

@<TRIPOS>ATOM
      1  N         40.6360   -0.2290   15.3560 N.3   171  THR171     -0.1218
      2  CA        39.2390   -0.5800   15.2440 C.3   171  THR171      0.1862
      3  C         38.6000    0.7140   14.7990 C.2   171  THR171      0.2287
      4  O         39.1700    1.7820   14.9780 O.2   171  THR171     -0.2866
      5  CB        38.6200   -1.0000   16.5980 C.3   171  THR171      0.1770
      6  OG1       38.7760    0.0570   17.5440 O.3   171  THR171     -0.2211
      7  CG2       39.2800   -2.2430   17.1320 C.3   171  THR171      0.0375
      8  N         30.0520   -9.2140   21.3150 N.3   188  VAL188     -0.1245
      9  CA        30.8110   -9.2230   20.0870 C.3   188  VAL188      0.1561
     10  C         29.9910   -9.8040   18.9660 C.2   188  VAL188      0.2260
     11  O         29.3090  -10.8180   19.1360 O.2   188  VAL188     -0.2867
     12  CB        32.1180  -10.0190   20.2370 C.3   188  VAL188      0.0252
     13  CG1       32.8860   -9.9810   18.9120 C.3   188  VAL188      0.0019
     14  CG2       32.9740   -9.4020   21.3550 C.3   188  VAL188      0.0019
     15  N         34.5700   -7.7210   13.0130 N.3   204  VAL204     -0.1245
     16  CA        34.2050   -8.2780   14.2940 C.3   204  VAL204      0.1561
     17  C         33.9510   -6.9730   15.0570 C.2   204  VAL204      0.2260
     18  O         34.8220   -6.0980   15.1770 O.2   204  VAL204     -0.2867
     19  CB        35.3660   -9.1460   14.8320 C.3   204  VAL204      0.0252
     20  CG1       36.6120   -8.3280   14.9630 C.3   204  VAL204      0.0019
     21  CG2       34.9890   -9.7780   16.1260 C.3   204  VAL204      0.0019
     22  N         32.4320   -4.9740   18.4400 N.3   206  ASN206     -0.1240
     23  CA        32.1680   -5.1200   19.8360 C.3   206  ASN206      0.1653
     24  C         31.1790   -4.0840   20.2680 C.2   206  ASN206      0.2266
     25  O         31.2650   -2.9340   19.8550 O.2   206  ASN206     -0.2867
     26  CB        33.4430   -4.9620   20.6760 C.3   206  ASN206      0.1155
     27  CG        33.1470   -5.1000   22.1370 C.2   206  ASN206      0.2627
     28  OD1       33.3280   -4.1670   22.9270 O.2   206  ASN206     -0.2716
     29  ND2       32.6480   -6.2550   22.5030 N.am  206  ASN206     -0.0877
     30  N         32.4860   -0.4500   18.0620 N.3   220  GLU220     -0.1245
     31  CA        33.8130   -0.3980   17.4560 C.3   220  GLU220      0.1567
     32  C         34.0100   -1.6740   16.6760 C.2   220  GLU220      0.2260
     33  O         33.6840   -2.7680   17.1360 O.2   220  GLU220     -0.2867
     34  CB        34.9030   -0.2450   18.5250 C.3   220  GLU220      0.0388
     35  CG        34.5610   -0.8640   19.8510 C.3   220  GLU220      0.1160
     36  CD        35.7000   -0.7600   20.8470 C.2   220  GLU220      0.3649
     37  OE1       35.4350   -0.8000   22.0720 O.co2 220  GLU220     -0.2457
     38  OE2       36.8560   -0.6600   20.3860 O.co2 220  GLU220     -0.2457
     39  N         36.5320   -4.1660   14.1930 N.3   222  TYR222     -0.1241
     40  CA        37.8440   -4.5000   13.7240 C.3   222  TYR222      0.1605
     41  C         37.5460   -5.1240   12.3720 C.2   222  TYR222      0.2264
     42  O         36.9950   -6.2140   12.2750 O.2   222  TYR222     -0.2867
     43  CB        38.5010   -5.5200   14.6290 C.3   222  TYR222      0.0534
     44  CG        39.7420   -6.1100   13.9850 C.ar  222  TYR222     -0.0201
     45  CD1       40.8400   -5.3100   13.6870 C.ar  222  TYR222     -0.0009
     46  CD2       39.8030   -7.4520   13.6540 C.ar  222  TYR222     -0.0009
     47  CE1       41.9720   -5.8380   13.0700 C.ar  222  TYR222      0.0417
     48  CE2       40.9230   -7.9870   13.0420 C.ar  222  TYR222      0.0417
     49  CZ        41.9990   -7.1840   12.7490 C.ar  222  TYR222      0.1957
     50  OH        43.0850   -7.7290   12.0990 O.3   222  TYR222     -0.2866
     51  N         29.6530  -13.5760   21.1970 N.3   244  ARG244     -0.1245
     52  CA        29.8350  -13.8150   22.6240 C.3   244  ARG244      0.1563
     53  C         29.5440  -12.5500   23.4230 C.2   244  ARG244      0.2260
     54  O         29.7270  -11.4290   22.9220 O.2   244  ARG244     -0.2867
     55  CB        31.2850  -14.2620   22.8900 C.3   244  ARG244      0.0307
     56  CG        32.3000  -13.1330   22.7430 C.3   244  ARG244      0.0489
     57  CD        33.6690  -13.4370   23.3690 C.3   244  ARG244      0.2205
     58  NE        34.6820  -12.4320   23.0100 N.pl3 244  ARG244     -0.0865
     59  CZ        34.8870  -11.2700   23.6370 C.cat 244  ARG244      0.5346
     60  NH1       34.1510  -10.9210   24.6830 N.pl3 244  ARG244      0.1354
     61  NH2       35.8590  -10.4580   23.2240 N.pl3 244  ARG244      0.1354
     62  N         29.7610   -9.5130   26.2240 N.3   246  GLU246     -0.1231
     63  CA        30.8260   -8.5850   26.5450 C.3   246  GLU246      0.1699
     64  C         31.5740   -9.1800   27.7640 C.2   246  GLU246      0.2592
     65  O         30.9930   -9.9190   28.5410 O.2   246  GLU246     -0.2718
     66  CB        30.1920   -7.2280   26.8560 C.3   246  GLU246      0.0402
     67  CG        31.1480   -6.0600   27.0230 C.3   246  GLU246      0.1161
     68  CD        31.8930   -5.7040   25.7470 C.2   246  GLU246      0.3649
     69  OE1       32.6530   -4.7040   25.7600 O.co2 246  GLU246     -0.2457
     70  OE2       31.7190   -6.4310   24.7440 O.co2 246  GLU246     -0.2457
     71  N         32.8630   -8.8990   27.9110 N.am  247  LYS247     -0.1966
     72  CA        33.6210   -9.4300   29.0510 C.3   247  LYS247      0.1728
     73  C         34.4660   -8.3900   29.7870 C.2   247  LYS247      0.2616
     74  O         34.8980   -7.3750   29.2280 O.2   247  LYS247     -0.2715
     75  CB        34.5700  -10.5570   28.6270 C.3   247  LYS247      0.0311
     76  CG        33.9300  -11.8380   28.1170 C.3   247  LYS247      0.0038
     77  CD        35.0280  -12.7890   27.5960 C.3   247  LYS247      0.0206
     78  CE        34.4640  -13.8880   26.6840 C.3   247  LYS247      0.1093
     79  NZ        35.4990  -14.5250   25.8060 N.3   247  LYS247     -0.1314
     80  N         34.7020   -8.6670   31.0620 N.am  248  LYS248     -0.1963
     81  CA        35.5240   -7.8050   31.8880 C.3   248  LYS248      0.1728
     82  C         36.8570   -8.5350   32.0670 C.2   248  LYS248      0.2616
     83  O         36.9800   -9.4540   32.8720 O.2   248  LYS248     -0.2715
     84  CB        34.8190   -7.5330   33.2250 C.3   248  LYS248      0.0311
     85  CG        34.2000   -8.7580   33.8990 C.3   248  LYS248      0.0038
     86  CD        35.1550   -9.3670   34.9260 C.3   248  LYS248      0.0206
     87  CE        34.5030  -10.4630   35.7550 C.3   248  LYS248      0.1093
     88  NZ        35.5110  -11.1210   36.6400 N.3   248  LYS248     -0.1314
     89  N         37.8400   -8.1500   31.2620 N.am  249  PHE249     -0.1974
     90  CA        39.1650   -8.7530   31.3220 C.3   249  PHE249      0.1639
     91  C         40.0190   -8.0140   32.3370 C.2   249  PHE249      0.2290
     92  O         39.7450   -6.8610   32.6720 O.2   249  PHE249     -0.2864
     93  CB        39.8520   -8.6890   29.9580 C.3   249  PHE249      0.0560
     94  CG        39.0370   -9.2680   28.8460 C.ar  249  PHE249     -0.0200
     95  CD1       38.5140   -8.4480   27.8640 C.ar  249  PHE249     -0.0042
     96  CD2       38.7760  -10.6300   28.7900 C.ar  249  PHE249     -0.0042
     97  CE1       37.7440   -8.9740   26.8450 C.ar  249  PHE249     -0.0003
     98  CE2       38.0020  -11.1670   27.7700 C.ar  249  PHE249     -0.0003
     99  CZ        37.4850  -10.3350   26.7960 C.ar  249  PHE249     -0.0000
    100  N         42.4260   -9.7910   26.9760 N.3   255  LEU255     -0.1245
    101  CA        41.5430   -9.0720   26.0590 C.3   255  LEU255      0.1561
    102  C         42.0570   -9.4370   24.6720 C.2   255  LEU255      0.2260
    103  O         41.3430  -10.0220   23.8530 O.2   255  LEU255     -0.2867
    104  CB        41.6620   -7.5580   26.2620 C.3   255  LEU255      0.0270
    105  CG        41.0110   -6.6640   25.1890 C.3   255  LEU255      0.0019
    106  CD1       39.4930   -6.7990   25.2240 C.3   255  LEU255      0.0001
    107  CD2       41.4070   -5.2160   25.4230 C.3   255  LEU255      0.0001
    108  N         40.0650  -11.2540   21.7910 N.3   259  ILE259     -0.1245
    109  CA        39.8770  -10.6500   20.4850 C.3   259  ILE259      0.1561
    110  C         40.4240  -11.6150   19.4500 C.2   259  ILE259      0.2260
    111  O         39.7270  -11.9880   18.5010 O.2   259  ILE259     -0.2867
    112  CB        40.6340   -9.3020   20.3660 C.3   259  ILE259      0.0252
    113  CG1       39.8990   -8.2130   21.1590 C.3   259  ILE259      0.0019
    114  CG2       40.7820   -8.9190   18.9030 C.3   259  ILE259      0.0019
    115  CD1       40.4060   -6.8190   20.8700 C.3   259  ILE259      0.0001
    116  N         38.1100  -14.0460   18.8110 N.3   262  ASP262     -0.1239
    117  CA        36.9380  -13.5870   18.0540 C.3   262  ASP262      0.1674
    118  C         37.2340  -13.6350   16.5570 C.2   262  ASP262      0.2266
    119  O         36.4640  -14.2090   15.7750 O.2   262  ASP262     -0.2867
    120  CB        36.5550  -12.1560   18.4340 C.3   262  ASP262      0.1410
    121  CG        36.1670  -12.0190   19.8820 C.2   262  ASP262      0.3668
    122  OD1       35.5140  -12.9390   20.4100 O.co2 262  ASP262     -0.2456
    123  OD2       36.5040  -10.9780   20.4770 O.co2 262  ASP262     -0.2456
@<TRIPOS>BOND
     1    50    49    1
     2    42    41    2
     3    41    40    1
     4    49    48   ar
     5    49    47   ar
     6    15    16    1
     7    48    46   ar
     8    47    45   ar
     9    46    44   ar
    10    45    44   ar
    11    40    39    1
    12    40    43    1
    13    44    43    1
    14    16    19    1
    15    16    17    1
    16     3     4    2
    17     3     2    1
    18    19    20    1
    19    19    21    1
    20    17    18    2
    21     2     1    1
    22     2     5    1
    23   119   118    2
    24   118   117    1
    25     5     7    1
    26     5     6    1
    27    32    33    2
    28    32    31    1
    29    31    30    1
    30    31    34    1
    31   117   120    1
    32   117   116    1
    33   120   121    1
    34    22    23    1
    35   111   110    2
    36    34    35    1
    37   114   112    1
    38    13    12    1
    39    10    11    2
    40    10     9    1
    41   110   109    1
    42    23    24    1
    43    23    26    1
    44    35    36    1
    45    25    24    2
    46   121   122   ar
    47   121   123   ar
    48     9    12    1
    49     9     8    1
    50    12    14    1
    51   112   109    1
    52   112   113    1
    53    38    36   ar
    54   109   108    1
    55    26    27    1
    56    36    37   ar
    57   115   113    1
    58    51    52    1
    59    27    29   am
    60    27    28    2
    61    52    55    1
    62    52    53    1
    63    56    55    1
    64    56    57    1
    65    54    53    2
    66    58    57    1
    67    58    59    2
    68    61    59    1
    69    59    60    1
    70   103   102    2
    71   102   101    1
    72    70    68   ar
    73   105   106    1
    74   105   107    1
    75   105   104    1
    76    68    69   ar
    77    68    67    1
    78    79    78    1
    79   101   104    1
    80   101   100    1
    81    62    63    1
    82    63    66    1
    83    63    64    1
    84    78    77    1
    85    99    97   ar
    86    99    98   ar
    87    97    95   ar
    88    66    67    1
    89    77    76    1
    90    64    71   am
    91    64    65    2
    92    98    96   ar
    93    95    94   ar
    94    71    72    1
    95    76    75    1
    96    75    72    1
    97    96    94   ar
    98    94    93    1
    99    72    73    1
   100    74    73    2
   101    73    80   am
   102    93    90    1
   103    80    81    1
   104    89    90    1
   105    89    82   am
   106    90    91    1
   107    81    82    1
   108    81    84    1
   109    82    83    2
   110    91    92    2
   111    84    85    1
   112    85    86    1
   113    86    87    1
   114    87    88    1
