@<TRIPOS>MOLECULE
tmp/1s4oB00.pdb
 164 159 0 0 0
SMALL
GASTEIGER

@<TRIPOS>ATOM
      1  N         49.2300   59.6700   52.6510 N.3    21  LEU21      -0.1231
      2  CA        50.0870   59.0580   51.6270 C.3    21  LEU21       0.1693
      3  C         49.3890   59.5880   50.3660 C.2    21  LEU21       0.2592
      4  O         48.1580   59.5040   50.2680 O.2    21  LEU21      -0.2718
      5  CB        49.9610   57.5360   51.6810 C.3    21  LEU21       0.0284
      6  CG        50.9360   56.5980   50.9760 C.3    21  LEU21       0.0019
      7  CD1       50.1640   55.4520   50.3660 C.3    21  LEU21       0.0001
      8  CD2       51.7180   57.3090   49.9270 C.3    21  LEU21       0.0001
      9  N         50.1300   60.1420   49.4100 N.am   22  VAL22      -0.1966
     10  CA        49.4710   60.6860   48.2120 C.3    22  VAL22       0.1727
     11  C         50.4060   60.8770   47.0140 C.2    22  VAL22       0.2616
     12  O         51.6260   60.9710   47.1800 O.2    22  VAL22      -0.2715
     13  CB        48.7660   62.0170   48.5730 C.3    22  VAL22       0.0290
     14  CG1       49.8060   63.0560   49.0020 C.3    22  VAL22       0.0023
     15  CG2       47.9030   62.5120   47.4160 C.3    22  VAL22       0.0023
     16  N         49.8220   60.9000   45.8120 N.am   23  ARG23      -0.1977
     17  CA        50.5700   61.0530   44.5570 C.3    23  ARG23       0.1597
     18  C         50.6110   62.4980   44.0460 C.2    23  ARG23       0.2287
     19  O         49.7000   63.2780   44.3220 O.2    23  ARG23      -0.2864
     20  CB        49.9490   60.1570   43.4730 C.3    23  ARG23       0.0334
     21  CG        50.3670   58.6850   43.5250 C.3    23  ARG23       0.0492
     22  CD        49.4570   57.8170   42.6500 C.3    23  ARG23       0.2205
     23  NE        48.2450   57.4440   43.3820 N.pl3  23  ARG23      -0.0865
     24  CZ        47.0060   57.4980   42.8960 C.cat  23  ARG23       0.5346
     25  NH1       46.7910   57.9200   41.6480 N.pl3  23  ARG23       0.1354
     26  NH2       45.9760   57.1400   43.6750 N.pl3  23  ARG23       0.1354
     27  N         47.5190   63.8380   42.1780 N.3    26  GLU26      -0.1245
     28  CA        46.2200   63.9220   42.8600 C.3    26  GLU26       0.1567
     29  C         46.1010   65.2830   43.5770 C.2    26  GLU26       0.2260
     30  O         45.2780   65.4620   44.4860 O.2    26  GLU26      -0.2867
     31  CB        46.0730   62.7960   43.8830 C.3    26  GLU26       0.0388
     32  CG        46.4620   61.4420   43.3300 C.3    26  GLU26       0.1160
     33  CD        46.2200   60.3100   44.3000 C.2    26  GLU26       0.3649
     34  OE1       45.0630   59.8680   44.4110 O.co2  26  GLU26      -0.2457
     35  OE2       47.1870   59.8670   44.9480 O.co2  26  GLU26      -0.2457
     36  N         54.9500   60.0780   50.1810 N.3    53  ASN53      -0.1225
     37  CA        54.8520   59.7100   48.7620 C.3    53  ASN53       0.1785
     38  C         55.9940   58.7450   48.4230 C.2    53  ASN53       0.2597
     39  O         57.1140   58.9220   48.9090 O.2    53  ASN53      -0.2718
     40  CB        54.9460   60.9930   47.9060 C.3    53  ASN53       0.1169
     41  CG        54.6380   60.7700   46.4160 C.2    53  ASN53       0.2627
     42  OD1       54.4900   59.6420   45.9370 O.2    53  ASN53      -0.2716
     43  ND2       54.5570   61.8720   45.6750 N.am   53  ASN53      -0.0877
     44  N         55.7270   57.7230   47.6080 N.am   54  ASP54      -0.1974
     45  CA        56.7890   56.7840   47.2700 C.3    54  ASP54       0.1709
     46  C         57.7870   57.4730   46.3440 C.2    54  ASP54       0.2293
     47  O         58.9180   57.0200   46.1790 O.2    54  ASP54      -0.2864
     48  CB        56.2260   55.5180   46.6190 C.3    54  ASP54       0.1436
     49  CG        55.4540   55.8090   45.3640 C.2    54  ASP54       0.3671
     50  OD1       54.4620   56.5740   45.4300 O.co2  54  ASP54      -0.2456
     51  OD2       55.8350   55.2740   44.3050 O.co2  54  ASP54      -0.2456
     52  N         58.4580   49.8940   50.1490 N.3    83  TRP83      -0.1241
     53  CA        57.6970   50.0120   48.9090 C.3    83  TRP83       0.1605
     54  C         58.4150   49.3050   47.7670 C.2    83  TRP83       0.2264
     55  O         58.8500   49.9350   46.8070 O.2    83  TRP83      -0.2867
     56  CB        57.4880   51.4920   48.5510 C.3    83  TRP83       0.0550
     57  CG        56.4410   51.7390   47.5030 C.ar   83  TRP83       0.0003
     58  CD1       56.5680   51.5910   46.1460 C.ar   83  TRP83       0.0946
     59  CD2       55.1040   52.1990   47.7300 C.ar   83  TRP83       0.0152
     60  NE1       55.3930   51.9370   45.5170 N.ar   83  TRP83      -0.2442
     61  CE2       54.4800   52.3150   46.4670 C.ar   83  TRP83       0.0810
     62  CE3       54.3770   52.5290   48.8790 C.ar   83  TRP83       0.0012
     63  CZ2       53.1620   52.7520   46.3220 C.ar   83  TRP83       0.0191
     64  CZ3       53.0680   52.9620   48.7400 C.ar   83  TRP83       0.0001
     65  CH2       52.4720   53.0710   47.4670 C.ar   83  TRP83       0.0015
     66  N         41.2760   47.3330   40.8130 N.3   107  TYR107     -0.1241
     67  CA        42.7070   47.3330   41.0410 C.3   107  TYR107      0.1605
     68  C         43.3210   45.9550   40.8530 C.2   107  TYR107      0.2264
     69  O         44.4780   45.7400   41.2040 O.2   107  TYR107     -0.2867
     70  CB        43.0230   47.8700   42.4460 C.3   107  TYR107      0.0534
     71  CG        42.4470   49.2480   42.7020 C.ar  107  TYR107     -0.0201
     72  CD1       42.7050   50.3120   41.8310 C.ar  107  TYR107     -0.0009
     73  CD2       41.6600   49.4940   43.8210 C.ar  107  TYR107     -0.0009
     74  CE1       42.1880   51.5940   42.0810 C.ar  107  TYR107      0.0417
     75  CE2       41.1490   50.7680   44.0750 C.ar  107  TYR107      0.0417
     76  CZ        41.4190   51.8070   43.2060 C.ar  107  TYR107      0.1957
     77  OH        40.9380   53.0620   43.4920 O.3   107  TYR107     -0.2866
     78  N         51.0920   49.0300   41.6900 N.3   112  SER112     -0.1202
     79  CA        51.2510   50.0640   42.7080 C.3   112  SER112      0.2020
     80  C         50.2330   49.9280   43.8270 C.2   112  SER112      0.2618
     81  O         50.5510   50.1340   45.0030 O.2   112  SER112     -0.2717
     82  CB        51.1590   51.4690   42.0850 C.3   112  SER112      0.2103
     83  OG        49.9490   51.6500   41.3840 O.3   112  SER112     -0.2182
     84  N         49.0100   49.5610   43.4840 N.am  113  TYR113     -0.1975
     85  CA        47.9960   49.4200   44.5240 C.3   113  TYR113      0.1639
     86  C         48.4190   48.4500   45.6190 C.2   113  TYR113      0.2290
     87  O         48.2520   48.7190   46.8130 O.2   113  TYR113     -0.2864
     88  CB        46.6750   48.9380   43.9340 C.3   113  TYR113      0.0560
     89  CG        45.5150   49.1960   44.8580 C.ar  113  TYR113     -0.0198
     90  CD1       45.0000   50.4850   45.0110 C.ar  113  TYR113     -0.0009
     91  CD2       44.9500   48.1690   45.5920 C.ar  113  TYR113     -0.0009
     92  CE1       43.9430   50.7310   45.8740 C.ar  113  TYR113      0.0417
     93  CE2       43.9000   48.4020   46.4590 C.ar  113  TYR113      0.0417
     94  CZ        43.3980   49.6740   46.5940 C.ar  113  TYR113      0.1957
     95  OH        42.3260   49.8790   47.4250 O.3   113  TYR113     -0.2866
     96  N         50.8710   49.8390   47.9340 N.3   116  MET116     -0.1245
     97  CA        50.2240   50.8290   48.7980 C.3   116  MET116      0.1570
     98  C         49.5520   50.1110   49.9840 C.2   116  MET116      0.2261
     99  O         49.6770   50.5340   51.1420 O.2   116  MET116     -0.2867
    100  CB        49.2000   51.6460   47.9780 C.3   116  MET116      0.0387
    101  CG        48.4200   52.6930   48.7580 C.3   116  MET116      0.0595
    102  SD        47.0450   52.0260   49.7280 S.3   116  MET116     -0.1393
    103  CE        45.9820   51.5380   48.4150 C.3   116  MET116      0.0692
    104  N         50.4020   50.7760   53.9480 N.3   120  GLN120     -0.1245
    105  CA        49.4610   51.1720   54.9940 C.3   120  GLN120      0.1566
    106  C         49.3290   50.0950   56.0710 C.2   120  GLN120      0.2260
    107  O         49.0690   50.3890   57.2380 O.2   120  GLN120     -0.2867
    108  CB        48.0940   51.4570   54.3770 C.3   120  GLN120      0.0367
    109  CG        48.0820   52.5770   53.3510 C.3   120  GLN120      0.0905
    110  CD        48.2690   53.9670   53.9580 C.2   120  GLN120      0.2608
    111  OE1       47.8710   54.9660   53.3570 O.2   120  GLN120     -0.2717
    112  NE2       48.8750   54.0360   55.1350 N.am  120  GLN120     -0.0878
    113  N         44.2410   59.6790   59.5740 N.3   138  ARG138     -0.1231
    114  CA        44.4850   59.4670   58.1370 C.3   138  ARG138      0.1694
    115  C         43.4980   60.2410   57.2680 C.2   138  ARG138      0.2592
    116  O         42.2860   60.2190   57.5210 O.2   138  ARG138     -0.2718
    117  CB        44.4200   57.9670   57.7940 C.3   138  ARG138      0.0321
    118  CG        44.4750   57.6580   56.2970 C.3   138  ARG138      0.0489
    119  CD        44.7210   56.1850   56.0480 C.3   138  ARG138      0.2205
    120  NE        44.5730   55.7990   54.6400 N.pl3 138  ARG138     -0.0865
    121  CZ        44.7680   54.5570   54.1930 C.cat 138  ARG138      0.5346
    122  NH1       45.1200   53.5990   55.0370 N.pl3 138  ARG138      0.1354
    123  NH2       44.5870   54.2650   52.9090 N.pl3 138  ARG138      0.1354
    124  N         44.0240   60.9310   56.2560 N.am  139  VAL139     -0.1966
    125  CA        43.2180   61.7440   55.3320 C.3   139  VAL139      0.1727
    126  C         43.6630   61.4970   53.8970 C.2   139  VAL139      0.2616
    127  O         44.8510   61.5570   53.5950 O.2   139  VAL139     -0.2715
    128  CB        43.3660   63.2680   55.6130 C.3   139  VAL139      0.0290
    129  CG1       42.6230   64.0870   54.5550 C.3   139  VAL139      0.0023
    130  CG2       42.8000   63.5910   56.9920 C.3   139  VAL139      0.0023
    131  N         42.6950   61.2290   53.0300 N.am  140  GLU140     -0.1964
    132  CA        42.9420   60.9490   51.6180 C.3   140  GLU140      0.1718
    133  C         42.4180   62.0400   50.6850 C.2   140  GLU140      0.2458
    134  O         41.6370   62.8920   51.0860 O.2   140  GLU140     -0.2730
    135  CB        42.2670   59.6200   51.2350 C.3   140  GLU140      0.0428
    136  CG        43.0480   58.3890   51.6400 C.3   140  GLU140      0.1163
    137  CD        42.4180   57.1130   51.1250 C.2   140  GLU140      0.3649
    138  OE1       41.7270   57.1620   50.0870 O.co2 140  GLU140     -0.2457
    139  OE2       42.6220   56.0590   51.7520 O.co2 140  GLU140     -0.2457
    140  N         42.8540   62.0300   49.4170 N.am  141  PRO141     -0.2727
    141  CA        42.3320   63.0640   48.5270 C.3   141  PRO141      0.1402
    142  C         40.8770   62.7560   48.1630 C.2   141  PRO141      0.2269
    143  O         40.4260   61.6250   48.3000 O.2   141  PRO141     -0.2865
    144  CB        43.2730   62.9910   47.3120 C.3   141  PRO141      0.0296
    145  CG        43.7770   61.6010   47.3410 C.3   141  PRO141      0.0237
    146  CD        44.0040   61.3450   48.8030 C.3   141  PRO141      0.0939
    147  N         40.4750   54.5850   54.9690 N.3   220  ASN220     -0.1240
    148  CA        40.7350   55.9470   54.4930 C.3   220  ASN220      0.1653
    149  C         40.4500   56.9500   55.5960 C.2   220  ASN220      0.2266
    150  O         40.9570   58.0680   55.5700 O.2   220  ASN220     -0.2867
    151  CB        39.9310   56.2780   53.2340 C.3   220  ASN220      0.1155
    152  CG        38.5060   55.8070   53.3130 C.2   220  ASN220      0.2627
    153  OD1       37.6920   56.3660   54.0380 O.2   220  ASN220     -0.2716
    154  ND2       38.1960   54.7660   52.5590 N.am  220  ASN220     -0.0877
    155  N         33.9350   59.4660   51.4850 N.3   281  HIS281     -0.1241
    156  CA        35.0860   58.9890   50.7430 C.3   281  HIS281      0.1621
    157  C         34.3300   58.2880   49.6070 C.2   281  HIS281      0.2264
    158  O         33.5570   57.3690   49.8650 O.2   281  HIS281     -0.2867
    159  CB        35.9340   58.0070   51.5490 C.3   281  HIS281      0.0745
    160  CG        36.9790   57.3390   50.7210 C.ar  281  HIS281      0.0817
    161  ND1       36.7560   56.1410   50.0780 N.ar  281  HIS281     -0.2268
    162  CD2       38.2150   57.7440   50.3470 C.ar  281  HIS281      0.1154
    163  CE1       37.8090   55.8410   49.3360 C.ar  281  HIS281      0.1986
    164  NE2       38.7070   56.7960   49.4830 N.ar  281  HIS281     -0.2212
@<TRIPOS>BOND
     1    66    67    1
     2    68    67    1
     3    68    69    2
     4    67    70    1
     5    83    82    1
     6    25    24    1
     7    78    79    1
     8    72    74   ar
     9    72    71   ar
    10    74    76   ar
    11    82    79    1
    12    27    28    1
    13    70    71    1
    14    22    23    1
    15    22    21    1
    16    71    73   ar
    17    79    80    1
    18    28    29    1
    19    28    31    1
    20    24    23    2
    21    24    26    1
    22    76    77    1
    23    76    75   ar
    24    32    31    1
    25    32    33    1
    26    20    21    1
    27    20    17    1
    28    84    80   am
    29    84    85    1
    30    29    30    2
    31    73    75   ar
    32    80    81    2
    33    88    85    1
    34    88    89    1
    35    18    19    2
    36    18    17    1
    37    33    34   ar
    38    33    35   ar
    39    51    49   ar
    40    85    86    1
    41    17    16    1
    42    89    90   ar
    43    89    91   ar
    44    90    92   ar
    45    49    50   ar
    46    49    48    1
    47    60    58   ar
    48    60    61   ar
    49    91    93   ar
    50    86    87    2
    51    43    41   am
    52    16    11   am
    53    92    94   ar
    54    42    41    2
    55    58    57   ar
    56    47    46    2
    57    63    61   ar
    58    63    65   ar
    59    46    45    1
    60    41    40    1
    61    93    94   ar
    62    61    59   ar
    63    94    95    1
    64    48    45    1
    65    55    54    2
    66    11    12    2
    67    11    10    1
    68    45    44    1
    69   144   145    1
    70   144   141    1
    71   145   146    1
    72    15    13    1
    73    65    64   ar
    74    57    59   ar
    75    57    56    1
    76    44    38   am
    77    59    62   ar
    78    54    53    1
    79    40    37    1
    80    96    97    1
    81   100   101    1
    82   100    97    1
    83   142   143    2
    84   142   141    1
    85    10    13    1
    86    10     9    1
    87   103   102    1
    88    38    37    1
    89    38    39    2
    90   141   140    1
    91    56    53    1
    92    13    14    1
    93    64    62   ar
    94   101   102    1
    95    37    36    1
    96    97    98    1
    97   146   140    1
    98    53    52    1
    99   163   164   ar
   100   163   161   ar
   101     9     3   am
   102   140   133   am
   103   164   162   ar
   104   157   158    2
   105   157   156    1
   106     8     6    1
   107    98    99    2
   108   161   160   ar
   109   138   137   ar
   110     4     3    2
   111   162   160   ar
   112     3     2    1
   113     7     6    1
   114   133   134    2
   115   133   132    1
   116   160   159    1
   117   156   155    1
   118   156   159    1
   119     6     5    1
   120   137   136    1
   121   137   139   ar
   122   135   132    1
   123   135   136    1
   124   132   131    1
   125     2     5    1
   126     2     1    1
   127   154   152   am
   128   123   121    1
   129   131   126   am
   130   151   152    1
   131   151   148    1
   132   152   153    2
   133   109   110    1
   134   109   108    1
   135   111   110    2
   136   127   126    2
   137   126   125    1
   138   104   105    1
   139   110   112   am
   140   121   120    2
   141   121   122    1
   142   108   105    1
   143   148   147    1
   144   148   149    1
   145   129   128    1
   146   120   119    1
   147   105   106    1
   148   125   128    1
   149   125   124    1
   150   150   149    2
   151   128   130    1
   152   119   118    1
   153   106   107    2
   154   124   115   am
   155   118   117    1
   156   115   116    2
   157   115   114    1
   158   117   114    1
   159   114   113    1
