@<TRIPOS>MOLECULE
tmp/1s4pA01.pdb
 147 150 0 0 0
SMALL
GASTEIGER

@<TRIPOS>ATOM
      1  N         26.7110   45.1710   47.1070 N.3   106  ILE106     -0.1231
      2  CA        26.0720   46.4720   47.2860 C.3   106  ILE106      0.1692
      3  C         24.6190   46.4550   46.8120 C.2   106  ILE106      0.2592
      4  O         24.3140   46.0100   45.7030 O.2   106  ILE106     -0.2718
      5  CB        26.8910   47.6110   46.5610 C.3   106  ILE106      0.0266
      6  CG1       26.3340   48.9910   46.9410 C.3   106  ILE106      0.0019
      7  CG2       26.8700   47.4000   45.0550 C.3   106  ILE106      0.0020
      8  CD1       26.4700   49.3120   48.4020 C.3   106  ILE106      0.0001
      9  N         23.7340   46.9310   47.6880 N.am  107  TYR107     -0.1976
     10  CA        22.3000   46.9890   47.4720 C.3   107  TYR107      0.1639
     11  C         21.7130   45.5920   47.3810 C.2   107  TYR107      0.2290
     12  O         20.5690   45.4220   46.9920 O.2   107  TYR107     -0.2864
     13  CB        21.9730   47.7710   46.1980 C.3   107  TYR107      0.0560
     14  CG        22.5810   49.1500   46.1780 C.ar  107  TYR107     -0.0198
     15  CD1       22.2890   50.0700   47.1840 C.ar  107  TYR107     -0.0009
     16  CD2       23.4470   49.5420   45.1580 C.ar  107  TYR107     -0.0009
     17  CE1       22.8400   51.3480   47.1700 C.ar  107  TYR107      0.0417
     18  CE2       24.0080   50.8240   45.1390 C.ar  107  TYR107      0.0417
     19  CZ        23.6940   51.7160   46.1450 C.ar  107  TYR107      0.1957
     20  OH        24.1840   52.9990   46.1090 O.3   107  TYR107     -0.2866
     21  N         16.1570   49.6600   45.5680 N.3   113  TYR113     -0.1241
     22  CA        17.1610   49.7380   44.5130 C.3   113  TYR113      0.1605
     23  C         16.7670   48.9810   43.2490 C.2   113  TYR113      0.2264
     24  O         17.0560   49.4280   42.1330 O.2   113  TYR113     -0.2867
     25  CB        18.5000   49.2060   45.0070 C.3   113  TYR113      0.0534
     26  CG        19.6380   49.5820   44.1090 C.ar  113  TYR113     -0.0201
     27  CD1       20.1170   50.8850   44.0780 C.ar  113  TYR113     -0.0009
     28  CD2       20.2620   48.6290   43.3000 C.ar  113  TYR113     -0.0009
     29  CE1       21.1930   51.2380   43.2820 C.ar  113  TYR113      0.0417
     30  CE2       21.3420   48.9670   42.4990 C.ar  113  TYR113      0.0417
     31  CZ        21.8080   50.2730   42.5020 C.ar  113  TYR113      0.1957
     32  OH        22.9300   50.5900   41.7940 O.3   113  TYR113     -0.2866
     33  N         32.6750   50.2180   32.8500 N.3   170  ILE170     -0.1231
     34  CA        33.2520   49.3660   33.8910 C.3   170  ILE170      0.1692
     35  C         32.7370   47.9190   33.7840 C.2   170  ILE170      0.2592
     36  O         31.7610   47.6440   33.0840 O.2   170  ILE170     -0.2718
     37  CB        32.9120   49.9610   35.2970 C.3   170  ILE170      0.0266
     38  CG1       33.6850   49.2550   36.4090 C.3   170  ILE170      0.0019
     39  CG2       31.4180   49.8450   35.5710 C.3   170  ILE170      0.0020
     40  CD1       33.4590   49.9040   37.8120 C.3   170  ILE170      0.0001
     41  N         33.4050   46.9980   34.4580 N.am  171  HIS171     -0.1962
     42  CA        32.9640   45.6120   34.4430 C.3   171  HIS171      0.1787
     43  C         31.9380   45.4350   35.5460 C.2   171  HIS171      0.2620
     44  O         32.1570   45.8540   36.6850 O.2   171  HIS171     -0.2715
     45  CB        34.1250   44.6550   34.6980 C.3   171  HIS171      0.0785
     46  CG        35.1740   44.6700   33.6370 C.ar  171  HIS171      0.0821
     47  ND1       36.1680   45.6240   33.5840 N.ar  171  HIS171     -0.2267
     48  CD2       35.4170   43.8160   32.6140 C.ar  171  HIS171      0.1154
     49  CE1       36.9800   45.3560   32.5770 C.ar  171  HIS171      0.1986
     50  NE2       36.5490   44.2630   31.9750 N.ar  171  HIS171     -0.2212
     51  N         30.8260   44.7920   35.2270 N.am  172  GLU172     -0.1963
     52  CA        29.7810   44.5940   36.2250 C.3   172  GLU172      0.1733
     53  C         30.1210   43.4690   37.2110 C.2   172  GLU172      0.2616
     54  O         30.9290   42.5880   36.9180 O.2   172  GLU172     -0.2715
     55  CB        28.4550   44.3000   35.5160 C.3   172  GLU172      0.0429
     56  CG        27.2410   44.0620   36.4390 C.3   172  GLU172      0.1163
     57  CD        26.8340   45.3170   37.2060 C.2   172  GLU172      0.3649
     58  OE1       27.4150   45.5840   38.2700 O.co2 172  GLU172     -0.2457
     59  OE2       25.9390   46.0380   36.7350 O.co2 172  GLU172     -0.2457
     60  N         29.5390   43.5280   38.3960 N.am  173  TYR173     -0.1974
     61  CA        29.7500   42.4700   39.3820 C.3   173  TYR173      0.1639
     62  C         28.8140   41.3820   38.8930 C.2   173  TYR173      0.2290
     63  O         27.5990   41.5290   38.9840 O.2   173  TYR173     -0.2864
     64  CB        29.3030   42.9190   40.7780 C.3   173  TYR173      0.0560
     65  CG        30.0930   44.0620   41.3360 C.ar  173  TYR173     -0.0198
     66  CD1       31.4470   43.9210   41.6230 C.ar  173  TYR173     -0.0009
     67  CD2       29.4890   45.2960   41.5850 C.ar  173  TYR173     -0.0009
     68  CE1       32.1940   44.9780   42.1470 C.ar  173  TYR173      0.0417
     69  CE2       30.2250   46.3680   42.1110 C.ar  173  TYR173      0.0417
     70  CZ        31.5760   46.1940   42.3870 C.ar  173  TYR173      0.1957
     71  OH        32.3060   47.2360   42.8990 O.3   173  TYR173     -0.2866
     72  N         30.1600   47.3650   30.4860 N.3   216  HIS216     -0.1241
     73  CA        28.9560   48.1290   30.2110 C.3   216  HIS216      0.1621
     74  C         29.2910   49.5780   30.4200 C.2   216  HIS216      0.2264
     75  O         30.3410   49.8980   30.9850 O.2   216  HIS216     -0.2867
     76  CB        27.8020   47.7180   31.1370 C.3   216  HIS216      0.0745
     77  CG        28.0980   47.9100   32.5940 C.ar  216  HIS216      0.0817
     78  ND1       28.9000   47.0510   33.3130 N.ar  216  HIS216     -0.2268
     79  CD2       27.7390   48.8930   33.4540 C.ar  216  HIS216      0.1154
     80  CE1       29.0270   47.5000   34.5500 C.ar  216  HIS216      0.1986
     81  NE2       28.3340   48.6170   34.6610 N.ar  216  HIS216     -0.2212
     82  N         28.5760   53.1950   32.1550 N.3   218  TRP218     -0.1241
     83  CA        28.0040   53.6360   33.4230 C.3   218  TRP218      0.1605
     84  C         26.8140   54.5240   33.1240 C.2   218  TRP218      0.2264
     85  O         26.9780   55.6540   32.6530 O.2   218  TRP218     -0.2867
     86  CB        29.0460   54.3930   34.2350 C.3   218  TRP218      0.0550
     87  CG        29.1910   53.8780   35.6180 C.ar  218  TRP218      0.0003
     88  CD1       28.7440   52.6750   36.1050 C.ar  218  TRP218      0.0946
     89  CD2       29.8480   54.5390   36.7040 C.ar  218  TRP218      0.0152
     90  NE1       29.0890   52.5530   37.4400 N.ar  218  TRP218     -0.2442
     91  CE2       29.7640   53.6820   37.8290 C.ar  218  TRP218      0.0810
     92  CE3       30.4970   55.7760   36.8380 C.ar  218  TRP218      0.0012
     93  CZ2       30.3020   54.0250   39.0690 C.ar  218  TRP218      0.0191
     94  CZ3       31.0320   56.1180   38.0820 C.ar  218  TRP218      0.0001
     95  CH2       30.9290   55.2440   39.1770 C.ar  218  TRP218      0.0015
     96  N         19.9180   41.1300   40.5750 N.3   251  ARG251     -0.1245
     97  CA        19.9370   42.5700   40.8490 C.3   251  ARG251      0.1563
     98  C         20.3990   43.3000   39.5960 C.2   251  ARG251      0.2260
     99  O         21.3570   44.0790   39.6350 O.2   251  ARG251     -0.2867
    100  CB        20.8840   42.9120   42.0150 C.3   251  ARG251      0.0307
    101  CG        20.6050   44.2890   42.6770 C.3   251  ARG251      0.0489
    102  CD        21.9070   45.0370   42.9890 C.3   251  ARG251      0.2205
    103  NE        22.5820   45.4010   41.7530 N.pl3 251  ARG251     -0.0865
    104  CZ        23.7240   46.0760   41.6610 C.cat 251  ARG251      0.5346
    105  NH1       24.3590   46.4940   42.7500 N.pl3 251  ARG251      0.1354
    106  NH2       24.2430   46.3140   40.4590 N.pl3 251  ARG251      0.1354
    107  N         22.3600   49.8590   33.9190 N.3   255  ALA255     -0.1245
    108  CA        23.5920   50.1110   33.1650 C.3   255  ALA255      0.1562
    109  C         23.9080   48.9600   32.2060 C.2   255  ALA255      0.2260
    110  O         24.0050   49.1700   30.9960 O.2   255  ALA255     -0.2867
    111  CB        24.7410   50.3580   34.0970 C.3   255  ALA255      0.0290
    112  N         31.2710   60.3910   39.2520 N.3   281  HIS281     -0.1227
    113  CA        30.1330   59.8280   39.9430 C.3   281  HIS281      0.1737
    114  C         30.9130   58.9460   40.9150 C.2   281  HIS281      0.2438
    115  O         31.7130   58.1070   40.4930 O.2   281  HIS281     -0.2733
    116  CB        29.2340   59.0240   39.0110 C.3   281  HIS281      0.0758
    117  CG        28.1170   58.3480   39.7330 C.ar  281  HIS281      0.0818
    118  ND1       28.2840   57.1440   40.3760 N.ar  281  HIS281     -0.2268
    119  CD2       26.8500   58.7370   39.9880 C.ar  281  HIS281      0.1154
    120  CE1       27.1660   56.8190   40.9960 C.ar  281  HIS281      0.1986
    121  NE2       26.2790   57.7660   40.7780 N.ar  281  HIS281     -0.2212
    122  N         30.6980   59.1110   42.2300 N.am  282  PRO282     -0.2718
    123  CA        31.5070   58.2650   43.1150 C.3   282  PRO282      0.1520
    124  C         31.4890   56.7730   42.7640 C.2   282  PRO282      0.2440
    125  O         30.4240   56.1960   42.5230 O.2   282  PRO282     -0.2731
    126  CB        30.9570   58.5950   44.5180 C.3   282  PRO282      0.0310
    127  CG        30.4080   59.9970   44.3600 C.3   282  PRO282      0.0237
    128  CD        29.7060   59.8830   42.9950 C.3   282  PRO282      0.0939
    129  N         32.6670   56.1220   42.7670 N.am  283  PRO283     -0.2716
    130  CA        33.9960   56.6630   43.0750 C.3   283  PRO283      0.1536
    131  C         34.9220   56.8550   41.8740 C.2   283  PRO283      0.2598
    132  O         36.1480   56.9110   42.0590 O.2   283  PRO283     -0.2715
    133  CB        34.5560   55.5990   44.0070 C.3   283  PRO283      0.0310
    134  CG        34.1660   54.3710   43.2620 C.3   283  PRO283      0.0237
    135  CD        32.7140   54.6420   42.8310 C.3   283  PRO283      0.0939
    136  N         34.3650   56.9640   40.6650 N.am  284  TYR284     -0.1974
    137  CA        35.1930   57.0770   39.4590 C.3   284  TYR284      0.1639
    138  C         35.0920   58.3480   38.6070 C.2   284  TYR284      0.2290
    139  O         34.0450   58.9820   38.5180 O.2   284  TYR284     -0.2864
    140  CB        34.9460   55.8460   38.5770 C.3   284  TYR284      0.0560
    141  CG        35.1550   54.5400   39.3290 C.ar  284  TYR284     -0.0198
    142  CD1       36.3460   54.2870   40.0000 C.ar  284  TYR284     -0.0009
    143  CD2       34.1520   53.5690   39.3770 C.ar  284  TYR284     -0.0009
    144  CE1       36.5400   53.0960   40.7040 C.ar  284  TYR284      0.0417
    145  CE2       34.3320   52.3730   40.0770 C.ar  284  TYR284      0.0417
    146  CZ        35.5290   52.1430   40.7380 C.ar  284  TYR284      0.1957
    147  OH        35.7170   50.9630   41.4380 O.3   284  TYR284     -0.2866
@<TRIPOS>BOND
     1    73    74    1
     2    73    72    1
     3    73    76    1
     4    74    75    2
     5   110   109    2
     6    76    77    1
     7    50    49   ar
     8    50    48   ar
     9    82    83    1
    10   109   108    1
    11    49    47   ar
    12    77    78   ar
    13    77    79   ar
    14    48    46   ar
    15    85    84    2
    16    33    34    1
    17    36    35    2
    18    84    83    1
    19   108   107    1
    20   108   111    1
    21    78    80   ar
    22    83    86    1
    23    79    81   ar
    24    47    46   ar
    25    46    45    1
    26    35    34    1
    27    35    41   am
    28    34    37    1
    29    86    87    1
    30    42    41    1
    31    42    45    1
    32    42    43    1
    33    80    81   ar
    34    51    43   am
    35    51    52    1
    36    37    39    1
    37    37    38    1
    38    55    52    1
    39    55    56    1
    40    43    44    2
    41    87    88   ar
    42    87    89   ar
    43    88    90   ar
    44    52    53    1
    45    38    40    1
    46    56    57    1
    47    89    92   ar
    48    89    91   ar
    49    59    57   ar
    50    92    94   ar
    51    54    53    2
    52    57    58   ar
    53    53    60   am
    54    90    91   ar
    55    91    93   ar
    56    94    95   ar
    57    60    61    1
    58   139   138    2
    59   140   141    1
    60   140   137    1
    61   138   137    1
    62    62    63    2
    63    62    61    1
    64   116   117    1
    65   116   113    1
    66    93    95   ar
    67   112   113    1
    68   141   143   ar
    69   141   142   ar
    70   143   145   ar
    71    61    64    1
    72   137   136    1
    73    98    99    2
    74    98    97    1
    75   117   119   ar
    76   117   118   ar
    77   113   114    1
    78   119   121   ar
    79   142   144   ar
    80   145   146   ar
    81   118   120   ar
    82   106   104    1
    83   115   114    2
    84    96    97    1
    85   136   131   am
    86   144   146   ar
    87   146   147    1
    88    64    65    1
    89   121   120   ar
    90    97   100    1
    91   114   122   am
    92    65    67   ar
    93    65    66   ar
    94    67    69   ar
    95    66    68   ar
    96   104   103    2
    97   104   105    1
    98   103   102    1
    99    32    31    1
   100   131   132    2
   101   131   130    1
   102   100   101    1
   103    69    70   ar
   104    24    23    2
   105    68    70   ar
   106   122   128    1
   107   122   123    1
   108    70    71    1
   109    30    31   ar
   110    30    28   ar
   111    31    29   ar
   112   125   124    2
   113   101   102    1
   114   124   129   am
   115   124   123    1
   116   129   135    1
   117   129   130    1
   118   135   134    1
   119   128   127    1
   120   130   133    1
   121   123   126    1
   122    23    22    1
   123   134   133    1
   124    29    27   ar
   125    28    26   ar
   126    27    26   ar
   127    26    25    1
   128   127   126    1
   129    22    25    1
   130    22    21    1
   131     7     5    1
   132    18    16   ar
   133    18    19   ar
   134    16    14   ar
   135     4     3    2
   136    20    19    1
   137    19    17   ar
   138    14    13    1
   139    14    15   ar
   140    13    10    1
   141     5     6    1
   142     5     2    1
   143     3     2    1
   144     3     9   am
   145     6     8    1
   146    12    11    2
   147     1     2    1
   148    17    15   ar
   149    11    10    1
   150    10     9    1
