@<TRIPOS>MOLECULE
tmp/1s4vB00.pdb
 127 123 0 0 0
SMALL
GASTEIGER

@<TRIPOS>ATOM
      1  N         -3.1410   60.1050   34.3100 N.3    20  GLN20      -0.1245
      2  CA        -2.9370   59.9880   32.8660 C.3    20  GLN20       0.1566
      3  C         -4.1340   60.4320   32.0250 C.2    20  GLN20       0.2260
      4  O         -4.0190   60.5580   30.7990 O.2    20  GLN20      -0.2867
      5  CB        -2.5940   58.5390   32.5260 C.3    20  GLN20       0.0367
      6  CG        -3.7560   57.5860   32.7570 C.3    20  GLN20       0.0905
      7  CD        -3.3520   56.1490   32.4990 C.2    20  GLN20       0.2608
      8  OE1       -2.6590   55.5340   33.3150 O.2    20  GLN20      -0.2717
      9  NE2       -3.7540   55.6170   31.3490 N.am   20  GLN20      -0.0878
     10  N         -4.3920   56.2030   26.8640 N.3    24  GLY24      -0.1225
     11  CA        -3.8050   54.9480   27.3210 C.3    24  GLY24       0.1811
     12  C         -2.2890   55.0170   27.3580 C.2    24  GLY24       0.2280
     13  O         -1.5940   54.2630   26.6720 O.2    24  GLY24      -0.2866
     14  N         -0.4100   54.6350   30.3040 N.3    26  CYS26      -0.1221
     15  CA         0.1180   54.0870   31.5490 C.3    26  CYS26       0.1808
     16  C          1.5720   53.6320   31.4060 C.2    26  CYS26       0.2601
     17  O          2.3730   53.7980   32.3260 O.2    26  CYS26      -0.2717
     18  CB        -0.7550   52.9200   32.0310 C.3    26  CYS26       0.0970
     19  SG        -0.7070   51.4820   30.9840 S.3    26  CYS26      -0.0800
     20  N          1.9120   53.0720   30.2460 N.am   27  TRP27      -0.1976
     21  CA         3.2680   52.5980   30.0030 C.3    27  TRP27       0.1640
     22  C          4.2840   53.7300   30.1310 C.2    27  TRP27       0.2290
     23  O          5.3740   53.5330   30.6500 O.2    27  TRP27      -0.2864
     24  CB         3.3720   51.9740   28.6010 C.3    27  TRP27       0.0576
     25  CG         3.0060   52.9180   27.5130 C.ar   27  TRP27       0.0006
     26  CD1        1.7470   53.2040   27.0650 C.ar   27  TRP27       0.0946
     27  CD2        3.9010   53.7280   26.7410 C.ar   27  TRP27       0.0152
     28  NE1        1.8010   54.1390   26.0620 N.ar   27  TRP27      -0.2442
     29  CE2        3.1100   54.4790   25.8410 C.ar   27  TRP27       0.0810
     30  CE3        5.2930   53.8930   26.7210 C.ar   27  TRP27       0.0012
     31  CZ2        3.6650   55.3860   24.9240 C.ar   27  TRP27       0.0191
     32  CZ3        5.8510   54.7990   25.8030 C.ar   27  TRP27       0.0001
     33  CH2        5.0350   55.5310   24.9200 C.ar   27  TRP27       0.0015
     34  N          2.8290   52.8630   20.9320 N.3    63  GLN63      -0.1245
     35  CA         1.7700   53.5750   20.2310 C.3    63  GLN63       0.1566
     36  C          0.9920   54.6760   20.9650 C.2    63  GLN63       0.2260
     37  O         -0.2470   54.6750   20.9640 O.2    63  GLN63      -0.2867
     38  CB         0.7870   52.5330   19.6850 C.3    63  GLN63       0.0367
     39  CG         1.4290   51.5760   18.6870 C.3    63  GLN63       0.0905
     40  CD         0.5440   50.3950   18.3380 C.2    63  GLN63       0.2608
     41  OE1        0.7200   49.7660   17.2920 O.2    63  GLN63      -0.2717
     42  NE2       -0.4010   50.0750   19.2150 N.am   63  GLN63      -0.0878
     43  N         -1.2130   57.1210   23.0280 N.3    65  CYS65      -0.1221
     44  CA        -2.4220   56.8990   23.8190 C.3    65  CYS65       0.1808
     45  C         -3.0950   55.5610   23.5600 C.2    65  CYS65       0.2601
     46  O         -4.1170   55.2520   24.1830 O.2    65  CYS65      -0.2717
     47  CB        -3.4290   58.0330   23.5940 C.3    65  CYS65       0.0970
     48  SG        -2.8280   59.6290   24.2070 S.3    65  CYS65      -0.0800
     49  N         -2.5330   54.7830   22.6340 N.am   66  ASN66      -0.1960
     50  CA        -3.0860   53.4680   22.3010 C.3    66  ASN66       0.1819
     51  C         -2.2760   52.3530   22.9690 C.2    66  ASN66       0.2622
     52  O         -2.3860   51.1790   22.6020 O.2    66  ASN66      -0.2715
     53  CB        -3.1060   53.2290   20.7900 C.3    66  ASN66       0.1195
     54  CG        -3.9890   52.0490   20.4050 C.2    66  ASN66       0.2630
     55  OD1       -3.7420   51.3670   19.4050 O.2    66  ASN66      -0.2716
     56  ND2       -5.0310   51.8080   21.1960 N.am   66  ASN66      -0.0877
     57  N         -1.4460   52.7220   23.9380 N.am   67  GLY67      -0.1940
     58  CA        -0.6520   51.7200   24.6300 C.3    67  GLY67       0.2014
     59  C          0.7860   51.5170   24.1990 C.2    67  GLY67       0.2639
     60  O          1.2000   51.9220   23.1110 O.2    67  GLY67      -0.2714
     61  N          1.5480   50.8620   25.0770 N.am   68  GLY68      -0.1939
     62  CA         2.9500   50.5900   24.8060 C.3    68  GLY68       0.2014
     63  C          3.5470   49.7030   25.8840 C.2    68  GLY68       0.2639
     64  O          2.8130   49.1220   26.6970 O.2    68  GLY68      -0.2714
     65  N          4.8790   49.6070   25.9120 N.am   69  LEU69      -0.1963
     66  CA         5.5670   48.7860   26.8960 C.3    69  LEU69       0.1728
     67  C          6.7700   49.5250   27.4740 C.2    69  LEU69       0.2616
     68  O          7.5340   50.1840   26.7540 O.2    69  LEU69      -0.2715
     69  CB         6.0120   47.4750   26.2560 C.3    69  LEU69       0.0311
     70  CG         5.9800   46.2540   27.1720 C.3    69  LEU69       0.0022
     71  CD1        4.6950   46.2890   27.9950 C.3    69  LEU69       0.0001
     72  CD2        6.0650   44.9660   26.3380 C.3    69  LEU69       0.0001
     73  N          6.9380   49.4190   28.7880 N.am   70  MET70      -0.1977
     74  CA         8.0480   50.0850   29.4570 C.3    70  MET70       0.1605
     75  C          9.4250   49.7380   28.8820 C.2    70  MET70       0.2287
     76  O         10.2640   50.6190   28.6900 O.2    70  MET70      -0.2864
     77  CB         8.0120   49.7810   30.9590 C.3    70  MET70       0.0413
     78  CG         6.8030   50.3890   31.6910 C.3    70  MET70       0.0598
     79  SD         5.2800   49.4870   31.3990 S.3    70  MET70      -0.1393
     80  CE         5.4400   48.1400   32.5830 C.3    70  MET70       0.0692
     81  N         10.3750   48.9980   25.8900 N.3    72  TYR72      -0.1241
     82  CA        10.6310   49.7250   24.6530 C.3    72  TYR72       0.1605
     83  C         10.9180   51.1950   24.9290 C.2    72  TYR72       0.2264
     84  O         11.7320   51.8080   24.2310 O.2    72  TYR72      -0.2867
     85  CB         9.4400   49.6170   23.6960 C.3    72  TYR72       0.0534
     86  CG         9.0520   48.1970   23.3160 C.ar   72  TYR72      -0.0201
     87  CD1       10.0190   47.1970   23.1490 C.ar   72  TYR72      -0.0009
     88  CD2        7.7160   47.8550   23.1240 C.ar   72  TYR72      -0.0009
     89  CE1        9.6560   45.8850   22.8040 C.ar   72  TYR72       0.0417
     90  CE2        7.3430   46.5570   22.7810 C.ar   72  TYR72       0.0417
     91  CZ         8.3120   45.5760   22.6240 C.ar   72  TYR72       0.1957
     92  OH         7.9220   44.2910   22.2980 O.3    72  TYR72      -0.2866
     93  N          4.0640   45.5290   35.4750 N.3   136  ALA136     -0.1245
     94  CA         2.7900   45.4360   34.7820 C.3   136  ALA136      0.1562
     95  C          1.8580   44.6170   35.6650 C.2   136  ALA136      0.2260
     96  O          2.2900   43.6680   36.3180 O.2   136  ALA136     -0.2867
     97  CB         2.9600   44.7450   33.4520 C.3   136  ALA136      0.0290
     98  N         -2.3600   41.0200   32.3880 N.3   160  LEU160     -0.1231
     99  CA        -1.7370   42.3390   32.3970 C.3   160  LEU160      0.1693
    100  C         -2.3070   43.3480   31.4180 C.2   160  LEU160      0.2592
    101  O         -2.4040   43.0820   30.2190 O.2   160  LEU160     -0.2718
    102  CB        -0.2270   42.1770   32.1700 C.3   160  LEU160      0.0284
    103  CG         0.4320   41.1190   33.0580 C.3   160  LEU160      0.0019
    104  CD1        1.9330   41.0100   32.7470 C.3   160  LEU160      0.0001
    105  CD2        0.2040   41.4740   34.5240 C.3   160  LEU160      0.0001
    106  N         -2.6460   44.5260   31.9310 N.am  161  ASP161     -0.1960
    107  CA        -3.2120   45.5840   31.1070 C.3   161  ASP161      0.1840
    108  C         -2.8730   46.9430   31.6770 C.2   161  ASP161      0.2622
    109  O         -3.3750   47.9600   31.1960 O.2   161  ASP161     -0.2715
    110  CB        -4.7360   45.4660   31.0940 C.3   161  ASP161      0.1450
    111  CG        -5.3380   45.6590   32.4780 C.2   161  ASP161      0.3671
    112  OD1       -6.5740   45.5740   32.6150 O.co2 161  ASP161     -0.2456
    113  OD2       -4.5730   45.8970   33.4370 O.co2 161  ASP161     -0.2456
    114  N         -2.0140   46.9700   32.6880 N.am  162  HIS162     -0.1959
    115  CA        -1.6740   48.2450   33.2870 C.3   162  HIS162      0.1787
    116  C         -0.2340   48.3650   33.7660 C.2   162  HIS162      0.2620
    117  O          0.2690   47.5010   34.4890 O.2   162  HIS162     -0.2715
    118  CB        -2.6410   48.4820   34.4470 C.3   162  HIS162      0.0785
    119  CG        -2.6380   49.8830   34.9660 C.ar  162  HIS162      0.0821
    120  ND1       -2.6300   50.9870   34.1380 N.ar  162  HIS162     -0.2267
    121  CD2       -2.6940   50.3590   36.2310 C.ar  162  HIS162      0.1154
    122  CE1       -2.6830   52.0820   34.8740 C.ar  162  HIS162      0.1986
    123  NE2       -2.7250   51.7300   36.1450 N.ar  162  HIS162     -0.2212
    124  N          0.4250   49.4420   33.3560 N.am  163  GLY163     -0.1954
    125  CA         1.8060   49.6520   33.7590 C.3   163  GLY163      0.1869
    126  C          1.8870   50.6540   34.8970 C.2   163  GLY163      0.2309
    127  O          1.3560   51.7580   34.7880 O.2   163  GLY163     -0.2863
@<TRIPOS>BOND
     1    41    40    2
     2    40    39    1
     3    40    42   am
     4    39    38    1
     5    55    54    2
     6    38    35    1
     7    35    34    1
     8    35    36    1
     9    54    53    1
    10    54    56   am
    11    53    50    1
    12    37    36    2
    13    92    91    1
    14    50    49    1
    15    50    51    1
    16    52    51    2
    17    91    90   ar
    18    91    89   ar
    19    49    45   am
    20    90    88   ar
    21    89    87   ar
    22    51    57   am
    23    43    44    1
    24    60    59    2
    25    88    86   ar
    26    87    86   ar
    27    86    85    1
    28    45    44    1
    29    45    46    2
    30    47    44    1
    31    47    48    1
    32    85    82    1
    33    57    58    1
    34    59    58    1
    35    59    61   am
    36    84    83    2
    37    82    83    1
    38    82    81    1
    39    62    61    1
    40    62    63    1
    41    33    31   ar
    42    33    32   ar
    43    31    29   ar
    44    32    30   ar
    45    29    28   ar
    46    29    27   ar
    47    63    65   am
    48    63    64    2
    49    65    66    1
    50    28    26   ar
    51    69    66    1
    52    69    70    1
    53    72    70    1
    54    13    12    2
    55    30    27   ar
    56    27    25   ar
    57    68    67    2
    58    10    11    1
    59    66    67    1
    60    26    25   ar
    61    70    71    1
    62    11    12    1
    63    67    73   am
    64    25    24    1
    65    24    21    1
    66    76    75    2
    67    73    74    1
    68    75    74    1
    69    74    77    1
    70    21    22    1
    71    21    20    1
    72    22    23    2
    73   101   100    2
    74    20    16   am
    75    14    15    1
    76     4     3    2
    77    77    78    1
    78    19    18    1
    79   110   107    1
    80   110   111    1
    81   107   108    1
    82   107   106    1
    83   109   108    2
    84     9     7   am
    85    79    78    1
    86    79    80    1
    87    16    15    1
    88    16    17    2
    89   100   106   am
    90   100    99    1
    91    15    18    1
    92   108   114   am
    93     3     2    1
    94   102    99    1
    95   102   103    1
    96    98    99    1
    97   111   112   ar
    98   111   113   ar
    99     7     6    1
   100     7     8    2
   101     5     6    1
   102     5     2    1
   103   114   115    1
   104   104   103    1
   105     2     1    1
   106   103   105    1
   107   115   116    1
   108   115   118    1
   109   124   125    1
   110   124   116   am
   111    97    94    1
   112   125   126    1
   113   116   117    2
   114   120   122   ar
   115   120   119   ar
   116   118   119    1
   117    94    93    1
   118    94    95    1
   119   127   126    2
   120   122   123   ar
   121   119   121   ar
   122    95    96    2
   123   123   121   ar
