@<TRIPOS>MOLECULE
tmp/1s57F00.pdb
 115 111 0 0 0
SMALL
GASTEIGER

@<TRIPOS>ATOM
      1  N         49.9080   32.4030   42.5970 N.3    30  GLU30      -0.1231
      2  CA        48.8540   33.3790   42.8820 C.3    30  GLU30       0.1699
      3  C         47.5060   32.7730   42.4860 C.2    30  GLU30       0.2592
      4  O         46.5300   32.8260   43.2430 O.2    30  GLU30      -0.2718
      5  CB        49.0530   34.6580   42.0620 C.3    30  GLU30       0.0402
      6  CG        49.9230   35.7180   42.6980 C.3    30  GLU30       0.1161
      7  CD        49.9660   36.9810   41.8690 C.2    30  GLU30       0.3649
      8  OE1       50.2770   36.8810   40.6640 O.co2  30  GLU30      -0.2457
      9  OE2       49.6890   38.0700   42.4170 O.co2  30  GLU30      -0.2457
     10  N         47.4600   32.2070   41.2820 N.am   31  LYS31      -0.1980
     11  CA        46.2380   31.6030   40.7610 C.3    31  LYS31       0.1596
     12  C         45.7720   30.4310   41.6150 C.2    31  LYS31       0.2287
     13  O         44.5700   30.2050   41.7620 O.2    31  LYS31      -0.2864
     14  CB        46.4510   31.1360   39.3160 C.3    31  LYS31       0.0298
     15  CG        46.6600   32.2600   38.3090 C.3    31  LYS31       0.0038
     16  CD        45.4290   33.1450   38.1970 C.3    31  LYS31       0.0206
     17  CE        45.5100   34.0580   36.9800 C.3    31  LYS31       0.1093
     18  NZ        44.2870   34.8960   36.8250 N.3    31  LYS31      -0.1314
     19  N         45.9320   30.2050   44.7270 N.3    33  GLY33      -0.1210
     20  CA        45.2220   30.7380   45.8800 C.3    33  GLY33       0.1956
     21  C         46.0440   30.9320   47.1440 C.2    33  GLY33       0.2612
     22  O         45.4930   31.1920   48.2140 O.2    33  GLY33      -0.2717
     23  N         47.3590   30.7990   47.0370 N.am   34  PHE34      -0.1962
     24  CA        48.2220   30.9810   48.1960 C.3    34  PHE34       0.1771
     25  C         48.5740   32.4550   48.3530 C.2    34  PHE34       0.2619
     26  O         48.4130   33.2370   47.4150 O.2    34  PHE34      -0.2715
     27  CB        49.4730   30.1230   48.0490 C.3    34  PHE34       0.0574
     28  CG        49.2130   28.6580   48.2460 C.ar   34  PHE34      -0.0200
     29  CD1       48.6650   28.1990   49.4420 C.ar   34  PHE34      -0.0042
     30  CD2       49.5080   27.7380   47.2470 C.ar   34  PHE34      -0.0042
     31  CE1       48.4140   26.8420   49.6400 C.ar   34  PHE34      -0.0003
     32  CE2       49.2600   26.3770   47.4380 C.ar   34  PHE34      -0.0003
     33  CZ        48.7120   25.9320   48.6360 C.ar   34  PHE34      -0.0000
     34  N         49.0430   32.8360   49.5380 N.am   35  LYS35      -0.1963
     35  CA        49.3670   34.2350   49.8000 C.3    35  LYS35       0.1728
     36  C         50.8550   34.5520   49.7110 C.2    35  LYS35       0.2616
     37  O         51.6810   33.9150   50.3630 O.2    35  LYS35      -0.2715
     38  CB        48.8380   34.6470   51.1830 C.3    35  LYS35       0.0311
     39  CG        49.0790   36.1160   51.5230 C.3    35  LYS35       0.0038
     40  CD        48.1750   36.6070   52.6520 C.3    35  LYS35       0.0206
     41  CE        48.3960   35.8650   53.9370 C.3    35  LYS35       0.1093
     42  NZ        47.4010   36.2690   54.9780 N.3    35  LYS35      -0.1314
     43  N         51.1830   35.5460   48.8930 N.am   36  LEU36      -0.1977
     44  CA        52.5640   35.9720   48.7180 C.3    36  LEU36       0.1596
     45  C         52.8850   36.9520   49.8400 C.2    36  LEU36       0.2287
     46  O         52.2210   37.9800   49.9740 O.2    36  LEU36      -0.2864
     47  CB        52.7260   36.6520   47.3540 C.3    36  LEU36       0.0297
     48  CG        54.1010   37.2220   46.9910 C.3    36  LEU36       0.0022
     49  CD1       55.1420   36.1140   47.0110 C.3    36  LEU36       0.0001
     50  CD2       54.0290   37.8680   45.6070 C.3    36  LEU36       0.0001
     51  N         52.4620   31.7050   51.9140 N.3    80  GLU80      -0.1231
     52  CA        51.7370   31.2240   53.0820 C.3    80  GLU80       0.1699
     53  C         50.4140   30.5400   52.7140 C.2    80  GLU80       0.2592
     54  O         49.7570   30.9070   51.7350 O.2    80  GLU80      -0.2718
     55  CB        51.4560   32.4210   53.9950 C.3    80  GLU80       0.0402
     56  CG        51.6200   32.1680   55.4740 C.3    80  GLU80       0.1161
     57  CD        51.5410   33.4550   56.2720 C.2    80  GLU80       0.3649
     58  OE1       50.5690   34.2040   56.0780 O.co2  80  GLU80      -0.2457
     59  OE2       52.4470   33.7190   57.0880 O.co2  80  GLU80      -0.2457
     60  N         50.0270   29.5440   53.5050 N.am   81  GLY81      -0.1957
     61  CA        48.7750   28.8490   53.2560 C.3    81  GLY81       0.1869
     62  C         48.7400   27.5040   53.9470 C.2    81  GLY81       0.2309
     63  O         49.7780   26.9740   54.3220 O.2    81  GLY81      -0.2863
     64  N         49.5190   40.5480   55.4810 N.3   143  TRP143     -0.1241
     65  CA        48.3150   41.2280   55.0270 C.3   143  TRP143      0.1605
     66  C         47.1010   40.3130   55.0370 C.2   143  TRP143      0.2264
     67  O         47.2320   39.0910   54.9690 O.2   143  TRP143     -0.2867
     68  CB        48.5170   41.8040   53.6190 C.3   143  TRP143      0.0550
     69  CG        49.0110   40.8230   52.5760 C.ar  143  TRP143      0.0003
     70  CD1       50.2650   40.2880   52.4800 C.ar  143  TRP143      0.0946
     71  CD2       48.2820   40.3400   51.4420 C.ar  143  TRP143      0.0152
     72  NE1       50.3640   39.5090   51.3500 N.ar  143  TRP143     -0.2442
     73  CE2       49.1610   39.5240   50.6940 C.ar  143  TRP143      0.0810
     74  CE3       46.9710   40.5210   50.9800 C.ar  143  TRP143      0.0012
     75  CZ2       48.7710   38.8880   49.5100 C.ar  143  TRP143      0.0191
     76  CZ3       46.5830   39.8920   49.8050 C.ar  143  TRP143      0.0001
     77  CH2       47.4840   39.0850   49.0820 C.ar  143  TRP143      0.0015
     78  N         43.9740   38.9490   53.1540 N.3   145  SER145     -0.1217
     79  CA        43.4470   38.8030   51.8020 C.3   145  SER145      0.1889
     80  C         41.9360   38.9940   51.7400 C.2   145  SER145      0.2288
     81  O         41.1890   38.3600   52.4850 O.2   145  SER145     -0.2866
     82  CB        43.8130   37.4270   51.2530 C.3   145  SER145      0.2089
     83  OG        43.4100   37.2990   49.9040 O.3   145  SER145     -0.2183
     84  N         39.9320   37.9760   49.5700 N.3   147  LEU147     -0.1231
     85  CA        39.2820   36.7440   49.1290 C.3   147  LEU147      0.1693
     86  C         39.4440   35.5690   50.0890 C.2   147  LEU147      0.2591
     87  O         39.0030   34.4580   49.8000 O.2   147  LEU147     -0.2718
     88  CB        39.8150   36.3480   47.7460 C.3   147  LEU147      0.0284
     89  CG        39.3420   37.1840   46.5580 C.3   147  LEU147      0.0019
     90  CD1       40.1600   36.8440   45.3160 C.3   147  LEU147      0.0001
     91  CD2       37.8640   36.9230   46.3120 C.3   147  LEU147      0.0001
     92  N         40.0600   35.8130   51.2380 N.am  148  ALA148     -0.1980
     93  CA        40.2910   34.7530   52.2140 C.3   148  ALA148      0.1597
     94  C         39.0950   33.8240   52.4480 C.2   148  ALA148      0.2287
     95  O         39.2300   32.5990   52.3590 O.2   148  ALA148     -0.2864
     96  CB        40.7490   35.3630   53.5380 C.3   148  ALA148      0.0319
     97  N         38.5910   31.2650   49.7090 N.3   151  LEU151     -0.1231
     98  CA        39.6270   30.2730   49.4300 C.3   151  LEU151      0.1693
     99  C         39.6270   29.1720   50.4870 C.2   151  LEU151      0.2591
    100  O         40.0870   28.0620   50.2360 O.2   151  LEU151     -0.2718
    101  CB        41.0070   30.9190   49.3710 C.3   151  LEU151      0.0284
    102  CG        41.4950   31.3160   47.9790 C.3   151  LEU151      0.0019
    103  CD1       42.9210   31.6840   48.1140 C.3   151  LEU151      0.0001
    104  CD2       41.3960   30.1560   46.9860 C.3   151  LEU151      0.0001
    105  N         39.1310   29.4780   51.6810 N.am  152  ARG152     -0.1980
    106  CA        39.0620   28.4610   52.7250 C.3   152  ARG152      0.1597
    107  C         37.9710   28.7880   53.7320 C.2   152  ARG152      0.2287
    108  O         37.7350   29.9560   54.0490 O.2   152  ARG152     -0.2864
    109  CB        40.4190   28.2970   53.4270 C.3   152  ARG152      0.0334
    110  CG        40.9800   29.5510   54.0560 C.3   152  ARG152      0.0492
    111  CD        42.4120   29.3290   54.5590 C.3   152  ARG152      0.2205
    112  NE        42.4850   28.9040   55.9590 N.pl3 152  ARG152     -0.0865
    113  CZ        42.2310   27.6750   56.4070 C.cat 152  ARG152      0.5346
    114  NH1       41.8770   26.7060   55.5680 N.pl3 152  ARG152      0.1354
    115  NH2       42.3380   27.4130   57.7050 N.pl3 152  ARG152      0.1354
@<TRIPOS>BOND
     1    18    17    1
     2    17    16    1
     3    16    15    1
     4    15    14    1
     5    14    11    1
     6     8     7   ar
     7    11    10    1
     8    11    12    1
     9    10     3   am
    10    12    13    2
    11     7     9   ar
    12     7     6    1
    13     5     6    1
    14     5     2    1
    15     3     2    1
    16     3     4    2
    17     1     2    1
    18    19    20    1
    19    90    89    1
    20    50    48    1
    21    20    21    1
    22    91    89    1
    23    89    88    1
    24   104   102    1
    25    48    49    1
    26    48    47    1
    27    23    21   am
    28    23    24    1
    29    21    22    2
    30    30    32   ar
    31    30    28   ar
    32    47    44    1
    33    26    25    2
    34    32    33   ar
    35    88    85    1
    36   102   103    1
    37   102   101    1
    38    27    24    1
    39    27    28    1
    40    24    25    1
    41    28    29   ar
    42    25    34   am
    43    33    31   ar
    44    44    43    1
    45    44    45    1
    46    43    36   am
    47    77    75   ar
    48    77    76   ar
    49    85    84    1
    50    85    86    1
    51   101    98    1
    52    98    97    1
    53    98    99    1
    54    29    31   ar
    55    75    73   ar
    56    34    35    1
    57    36    35    1
    58    36    37    2
    59    87    86    2
    60    35    38    1
    61    76    74   ar
    62    45    46    2
    63    83    82    1
    64    86    92   am
    65   100    99    2
    66    99   105   am
    67    73    72   ar
    68    73    71   ar
    69    74    71   ar
    70    38    39    1
    71    92    93    1
    72    82    79    1
    73    72    70   ar
    74    71    69   ar
    75    39    40    1
    76   105   106    1
    77    54    53    2
    78    80    79    1
    79    80    81    2
    80    79    78    1
    81    51    52    1
    82    93    94    1
    83    93    96    1
    84    95    94    2
    85    70    69   ar
    86    69    68    1
    87    40    41    1
    88    53    52    1
    89    53    60   am
    90   106   109    1
    91   106   107    1
    92    52    55    1
    93    61    60    1
    94    61    62    1
    95   109   110    1
    96    68    65    1
    97   107   108    2
    98    41    42    1
    99    62    63    2
   100    55    56    1
   101   110   111    1
   102   111   112    1
   103    67    66    2
   104    65    66    1
   105    65    64    1
   106    56    57    1
   107   114   113    1
   108   112   113    2
   109    58    57   ar
   110    57    59   ar
   111   113   115    1
