@<TRIPOS>MOLECULE
tmp/1s59A00.pdb
 153 144 0 0 0
SMALL
GASTEIGER

@<TRIPOS>ATOM
      1  N         27.0020   36.0770   19.9230 N.3    13  LYS13      -0.1245
      2  CA        26.2100   35.6510   18.7800 C.3    13  LYS13       0.1561
      3  C         26.3900   34.1610   18.4810 C.2    13  LYS13       0.2260
      4  O         27.2930   33.5130   19.0120 O.2    13  LYS13      -0.2867
      5  CB        26.5600   36.5200   17.5670 C.3    13  LYS13       0.0271
      6  CG        26.3900   38.0050   17.8760 C.3    13  LYS13       0.0035
      7  CD        26.6790   38.9150   16.6960 C.3    13  LYS13       0.0206
      8  CE        26.7100   40.3530   17.1700 C.3    13  LYS13       0.1093
      9  NZ        26.2560   41.3090   16.1390 N.3    13  LYS13      -0.1314
     10  N         16.4310   44.3590   16.8850 N.3    53  TYR53      -0.1241
     11  CA        17.0890   45.0310   15.7760 C.3    53  TYR53       0.1605
     12  C         16.0870   45.8360   14.9690 C.2    53  TYR53       0.2264
     13  O         16.2840   46.0650   13.7820 O.2    53  TYR53      -0.2867
     14  CB        17.7660   44.0010   14.8680 C.3    53  TYR53       0.0534
     15  CG        19.0920   43.5080   15.3910 C.ar   53  TYR53      -0.0201
     16  CD1       20.1390   44.3980   15.6190 C.ar   53  TYR53      -0.0009
     17  CD2       19.3080   42.1580   15.6490 C.ar   53  TYR53      -0.0009
     18  CE1       21.3750   43.9580   16.0940 C.ar   53  TYR53       0.0417
     19  CE2       20.5450   41.7050   16.1240 C.ar   53  TYR53       0.0417
     20  CZ        21.5720   42.6150   16.3430 C.ar   53  TYR53       0.1957
     21  OH        22.7950   42.1960   16.8130 O.3    53  TYR53      -0.2866
     22  N         16.9640   48.5120   12.4190 N.3    56  LEU56      -0.1245
     23  CA        17.6390   48.1440   11.1850 C.3    56  LEU56       0.1561
     24  C         16.6850   47.3910   10.2690 C.2    56  LEU56       0.2260
     25  O         17.0400   47.0240    9.1520 O.2    56  LEU56      -0.2867
     26  CB        18.8590   47.2840   11.5070 C.3    56  LEU56       0.0270
     27  CG        19.8450   47.9410   12.4760 C.3    56  LEU56       0.0019
     28  CD1       20.8750   46.9280   12.9210 C.3    56  LEU56       0.0001
     29  CD2       20.5110   49.1340   11.8100 C.3    56  LEU56       0.0001
     30  N         20.3040   44.1150    4.9060 N.3    61  PHE61      -0.1241
     31  CA        20.9500   43.0050    5.5820 C.3    61  PHE61       0.1605
     32  C         20.1170   42.4830    6.7440 C.2    61  PHE61       0.2264
     33  O         20.3960   41.4130    7.2710 O.2    61  PHE61      -0.2867
     34  CB        22.3550   43.4110    6.0600 C.3    61  PHE61       0.0534
     35  CG        22.3750   44.5850    7.0070 C.ar   61  PHE61      -0.0203
     36  CD1       21.9780   44.4420    8.3350 C.ar   61  PHE61      -0.0042
     37  CD2       22.8210   45.8320    6.5720 C.ar   61  PHE61      -0.0042
     38  CE1       22.0260   45.5200    9.2170 C.ar   61  PHE61      -0.0003
     39  CE2       22.8730   46.9200    7.4430 C.ar   61  PHE61      -0.0003
     40  CZ        22.4740   46.7650    8.7690 C.ar   61  PHE61      -0.0000
     41  N         18.8550   38.7000    6.6220 N.3    64  ASN64      -0.1225
     42  CA        19.9320   37.7670    6.9080 C.3    64  ASN64       0.1785
     43  C         20.2840   37.8460    8.3810 C.2    64  ASN64       0.2597
     44  O         20.3850   36.8260    9.0600 O.2    64  ASN64      -0.2718
     45  CB        21.1670   38.0960    6.0670 C.3    64  ASN64       0.1169
     46  CG        21.0710   37.5520    4.6540 C.2    64  ASN64       0.2627
     47  OD1       20.8080   36.3650    4.4540 O.2    64  ASN64      -0.2716
     48  ND2       21.2950   38.4140    3.6670 N.am   64  ASN64      -0.0877
     49  N         20.4620   39.0720    8.8630 N.am   65  LEU65      -0.1980
     50  CA        20.7910   39.3280   10.2540 C.3    65  LEU65       0.1596
     51  C         19.8720   38.5280   11.1730 C.2    65  LEU65       0.2287
     52  O         20.3390   37.7580   12.0190 O.2    65  LEU65      -0.2864
     53  CB        20.6460   40.8200   10.5470 C.3    65  LEU65       0.0297
     54  CG        21.1430   41.3160   11.9040 C.3    65  LEU65       0.0022
     55  CD1       22.6510   41.1490   11.9910 C.3    65  LEU65       0.0001
     56  CD2       20.7630   42.7730   12.0740 C.3    65  LEU65       0.0001
     57  N         20.6210   34.9560   10.9960 N.3    68  TYR68      -0.1241
     58  CA        21.9300   34.6890   11.5760 C.3    68  TYR68       0.1605
     59  C         21.8380   34.6390   13.0990 C.2    68  TYR68       0.2264
     60  O         22.2460   33.6640   13.7230 O.2    68  TYR68      -0.2867
     61  CB        22.9190   35.7730   11.1220 C.3    68  TYR68       0.0534
     62  CG        24.0980   36.0150   12.0410 C.ar   68  TYR68      -0.0201
     63  CD1       24.9370   34.9740   12.4470 C.ar   68  TYR68      -0.0009
     64  CD2       24.3900   37.3020   12.4840 C.ar   68  TYR68      -0.0009
     65  CE1       26.0410   35.2200   13.2780 C.ar   68  TYR68       0.0417
     66  CE2       25.4830   37.5580   13.3050 C.ar   68  TYR68       0.0417
     67  CZ        26.3010   36.5210   13.6990 C.ar   68  TYR68       0.1957
     68  OH        27.3640   36.8090   14.5190 O.3    68  TYR68      -0.2866
     69  N         31.7550   48.4300   24.9130 N.3    89  ARG89      -0.1245
     70  CA        31.8280   48.6900   23.4740 C.3    89  ARG89       0.1563
     71  C         33.2740   48.8580   23.0130 C.2    89  ARG89       0.2260
     72  O         33.6550   48.4020   21.9370 O.2    89  ARG89      -0.2867
     73  CB        31.0260   49.9390   23.1140 C.3    89  ARG89       0.0307
     74  CG        29.5420   49.7820   23.3450 C.3    89  ARG89       0.0489
     75  CD        28.7790   51.0050   22.8740 C.3    89  ARG89       0.2205
     76  NE        28.9190   51.2220   21.4350 N.pl3  89  ARG89      -0.0865
     77  CZ        28.5480   50.3490   20.4980 C.cat  89  ARG89       0.5346
     78  NH1       28.7190   50.6500   19.2150 N.pl3  89  ARG89       0.1354
     79  NH2       28.0090   49.1820   20.8330 N.pl3  89  ARG89       0.1354
     80  N         35.3840   46.4280   19.9840 N.3    93  GLY93      -0.1225
     81  CA        35.9950   46.8430   18.7320 C.3    93  GLY93       0.1811
     82  C         34.9680   47.3140   17.7170 C.2    93  GLY93       0.2280
     83  O         33.7620   47.1910   17.9370 O.2    93  GLY93      -0.2866
     84  N         32.4850   47.5970   14.4840 N.3    95  THR95      -0.1218
     85  CA        31.5210   46.6600   13.9160 C.3    95  THR95       0.1862
     86  C         32.1670   45.7010   12.9230 C.2    95  THR95       0.2287
     87  O         31.7790   44.5340   12.8140 O.2    95  THR95      -0.2866
     88  CB        30.4010   47.4180   13.2070 C.3    95  THR95       0.1770
     89  OG1       29.8010   48.3260   14.1280 O.3    95  THR95      -0.2211
     90  CG2       29.3440   46.4600   12.6990 C.3    95  THR95       0.0375
     91  N         36.4910   41.8390   18.7850 N.3   106  ARG106     -0.1245
     92  CA        36.3200   41.5870   17.3660 C.3   106  ARG106      0.1563
     93  C         37.6170   41.6730   16.5700 C.2   106  ARG106      0.2260
     94  O         37.8410   40.8700   15.6630 O.2   106  ARG106     -0.2867
     95  CB        35.2340   42.5180   16.7980 C.3   106  ARG106      0.0307
     96  CG        33.9160   42.3570   17.5590 C.3   106  ARG106      0.0489
     97  CD        32.6630   42.5730   16.7210 C.3   106  ARG106      0.2205
     98  NE        32.2520   43.9680   16.6650 N.pl3 106  ARG106     -0.0865
     99  CZ        31.0740   44.4240   17.0860 C.cat 106  ARG106      0.5346
    100  NH1       30.8010   45.7190   16.9910 N.pl3 106  ARG106      0.1354
    101  NH2       30.1700   43.6000   17.6010 N.pl3 106  ARG106      0.1354
    102  N         32.1350   41.5190    9.3200 N.3   113  THR113     -0.1203
    103  CA        31.0010   42.1800    9.9620 C.3   113  THR113      0.1994
    104  C         29.8500   41.2260   10.2750 C.2   113  THR113      0.2618
    105  O         29.5080   41.0260   11.4360 O.2   113  THR113     -0.2717
    106  CB        30.4460   43.3130    9.0760 C.3   113  THR113      0.1784
    107  OG1       31.5090   44.1950    8.6990 O.3   113  THR113     -0.2211
    108  CG2       29.3760   44.0990    9.8260 C.3   113  THR113      0.0376
    109  N         29.2610   40.6430    9.2370 N.am  114  GLY114     -0.1942
    110  CA        28.1450   39.7300    9.4200 C.3   114  GLY114      0.2014
    111  C         28.3910   38.5420   10.3310 C.2   114  GLY114      0.2639
    112  O         27.5040   37.7080   10.5310 O.2   114  GLY114     -0.2714
    113  N         29.6010   38.4550   10.8740 N.am  115  ARG115     -0.1963
    114  CA        29.9780   37.3750   11.7830 C.3   115  ARG115      0.1729
    115  C         30.9410   37.9760   12.7870 C.2   115  ARG115      0.2616
    116  O         32.0500   37.4710   12.9660 O.2   115  ARG115     -0.2715
    117  CB        30.6900   36.2490   11.0270 C.3   115  ARG115      0.0348
    118  CG        29.8970   35.6480    9.8840 C.3   115  ARG115      0.0492
    119  CD        28.6920   34.8530   10.3650 C.3   115  ARG115      0.2205
    120  NE        27.5150   35.2240    9.5900 N.pl3 115  ARG115     -0.0865
    121  CZ        26.6280   34.3590    9.1100 C.cat 115  ARG115      0.5346
    122  NH1       25.5880   34.7990    8.4100 N.pl3 115  ARG115      0.1354
    123  NH2       26.7860   33.0620    9.3240 N.pl3 115  ARG115      0.1354
    124  N         30.5230   39.0630   13.4300 N.am  116  ASN116     -0.1972
    125  CA        31.3860   39.7360   14.3950 C.3   116  ASN116      0.1688
    126  C         31.2080   39.2510   15.8300 C.2   116  ASN116      0.2292
    127  O         31.2450   40.0180   16.7810 O.2   116  ASN116     -0.2864
    128  CB        31.2240   41.2600   14.2870 C.3   116  ASN116      0.1181
    129  CG        29.7950   41.7270   14.5020 C.2   116  ASN116      0.2629
    130  OD1       28.8880   40.9290   14.7470 O.2   116  ASN116     -0.2716
    131  ND2       29.5920   43.0420   14.4130 N.am  116  ASN116     -0.0877
    132  N         27.8180   41.1540   20.5860 N.3   119  HIS119     -0.1226
    133  CA        27.0610   42.3950   20.6240 C.3   119  HIS119      0.1752
    134  C         27.1490   43.0400   22.0000 C.2   119  HIS119      0.2596
    135  O         27.2990   42.3470   23.0050 O.2   119  HIS119     -0.2718
    136  CB        25.5900   42.1320   20.3140 C.3   119  HIS119      0.0759
    137  CG        24.6890   43.2630   20.6990 C.ar  119  HIS119      0.0818
    138  ND1       24.6210   44.4380   19.9820 N.ar  119  HIS119     -0.2268
    139  CD2       23.8740   43.4270   21.7680 C.ar  119  HIS119      0.1154
    140  CE1       23.8040   45.2770   20.5930 C.ar  119  HIS119      0.1986
    141  NE2       23.3380   44.6880   21.6800 N.ar  119  HIS119     -0.2212
    142  N         27.0340   44.3640   22.0320 N.am  120  GLY120     -0.1957
    143  CA        27.0730   45.1060   23.2790 C.3   120  GLY120      0.1869
    144  C         26.2140   46.3410   23.1060 C.2   120  GLY120      0.2309
    145  O         26.2030   46.9350   22.0370 O.2   120  GLY120     -0.2863
    146  N         24.8150   49.9940   22.8010 N.3   122  ASP122     -0.1239
    147  CA        25.4810   51.2060   22.3330 C.3   122  ASP122      0.1674
    148  C         25.1980   52.4230   23.2050 C.2   122  ASP122      0.2266
    149  O         25.7150   53.5040   22.9450 O.2   122  ASP122     -0.2867
    150  CB        25.1020   51.5120   20.8700 C.3   122  ASP122      0.1410
    151  CG        23.6590   51.9660   20.7110 C.2   122  ASP122      0.3668
    152  OD1       22.9490   52.0450   21.7320 O.co2 122  ASP122     -0.2456
    153  OD2       23.2330   52.2460   19.5680 O.co2 122  ASP122     -0.2456
@<TRIPOS>BOND
     1    48    46   am
     2    47    46    2
     3    46    45    1
     4    30    31    1
     5    31    34    1
     6    31    32    1
     7    34    35    1
     8    45    42    1
     9    37    35   ar
    10    37    39   ar
    11    41    42    1
    12    32    33    2
    13    42    43    1
    14    35    36   ar
    15    39    40   ar
    16    36    38   ar
    17    43    49   am
    18    43    44    2
    19   122   121    1
    20   107   106    1
    21    40    38   ar
    22    49    50    1
    23   106   108    1
    24   106   103    1
    25   121   123    1
    26   121   120    2
    27    25    24    2
    28   109   110    1
    29   109   104   am
    30   102   103    1
    31   110   111    1
    32   120   119    1
    33   118   119    1
    34   118   117    1
    35   103   104    1
    36    50    53    1
    37    50    51    1
    38    24    23    1
    39   104   105    2
    40   111   112    2
    41   111   113   am
    42    53    54    1
    43   113   114    1
    44    57    58    1
    45   117   114    1
    46    61    58    1
    47    61    62    1
    48    51    52    2
    49    23    26    1
    50    23    22    1
    51    26    27    1
    52    58    59    1
    53   114   115    1
    54    29    27    1
    55    54    55    1
    56    54    56    1
    57    62    63   ar
    58    62    64   ar
    59    63    65   ar
    60    27    28    1
    61    64    66   ar
    62    90    88    1
    63   115   116    2
    64   115   124   am
    65    87    86    2
    66    86    85    1
    67    59    60    2
    68    88    85    1
    69    88    89    1
    70    65    67   ar
    71    66    67   ar
    72   124   125    1
    73    67    68    1
    74    13    12    2
    75    85    84    1
    76   128   125    1
    77   128   129    1
    78   125   126    1
    79   131   129   am
    80   129   130    2
    81    14    15    1
    82    14    11    1
    83    12    11    1
    84    15    16   ar
    85    15    17   ar
    86    16    18   ar
    87    17    19   ar
    88    94    93    2
    89    11    10    1
    90   126   127    2
    91    18    20   ar
    92    19    20   ar
    93     9     8    1
    94    20    21    1
    95    93    92    1
    96    98    97    1
    97    98    99    2
    98     7     8    1
    99     7     6    1
   100    97    96    1
   101    95    92    1
   102    95    96    1
   103   100    99    1
   104    99   101    1
   105    92    91    1
   106     5     6    1
   107     5     2    1
   108    82    83    2
   109    82    81    1
   110     3     2    1
   111     3     4    2
   112    81    80    1
   113     2     1    1
   114    78    77    1
   115   153   151   ar
   116   138   140   ar
   117   138   137   ar
   118   136   133    1
   119   136   137    1
   120    77    79    1
   121    77    76    2
   122   132   133    1
   123   140   141   ar
   124   133   134    1
   125   137   139   ar
   126   151   150    1
   127   151   152   ar
   128   150   147    1
   129    76    75    1
   130   141   139   ar
   131    72    71    2
   132   134   142   am
   133   134   135    2
   134   142   143    1
   135   145   144    2
   136   147   146    1
   137   147   148    1
   138    75    74    1
   139   149   148    2
   140    71    70    1
   141   144   143    1
   142    73    74    1
   143    73    70    1
   144    70    69    1
