@<TRIPOS>MOLECULE
tmp/1s59C00.pdb
 153 144 0 0 0
SMALL
GASTEIGER

@<TRIPOS>ATOM
      1  N         60.5140   36.2120   11.6700 N.3     9  LYS9       -0.1245
      2  CA        61.9360   36.4780   11.5010 C.3     9  LYS9        0.1561
      3  C         62.7020   35.5600   12.4270 C.2     9  LYS9        0.2260
      4  O         62.1140   34.9380   13.3110 O.2     9  LYS9       -0.2867
      5  CB        62.2700   37.9320   11.8340 C.3     9  LYS9        0.0271
      6  CG        62.0700   38.9070   10.6930 C.3     9  LYS9        0.0035
      7  CD        60.6170   38.9950   10.2780 C.3     9  LYS9        0.0206
      8  CE        60.4200   40.1500    9.3120 C.3     9  LYS9        0.1093
      9  NZ        60.8030   41.4510    9.9470 N.3     9  LYS9       -0.1314
     10  N         63.5810   42.3410    0.0420 N.3    49  TYR49      -0.1241
     11  CA        63.8400   43.7180    0.4630 C.3    49  TYR49       0.1605
     12  C         64.5350   44.5720   -0.5930 C.2    49  TYR49       0.2264
     13  O         65.4830   45.2980   -0.2900 O.2    49  TYR49      -0.2867
     14  CB        64.6750   43.7270    1.7480 C.3    49  TYR49       0.0534
     15  CG        63.9610   43.1400    2.9350 C.ar   49  TYR49      -0.0201
     16  CD1       62.7530   43.6780    3.3770 C.ar   49  TYR49      -0.0009
     17  CD2       64.4770   42.0390    3.6130 C.ar   49  TYR49      -0.0009
     18  CE1       62.0740   43.1350    4.4590 C.ar   49  TYR49       0.0417
     19  CE2       63.8030   41.4860    4.7020 C.ar   49  TYR49       0.0417
     20  CZ        62.6010   42.0410    5.1140 C.ar   49  TYR49       0.1957
     21  OH        61.9080   41.4970    6.1620 O.3    49  TYR49      -0.2866
     22  N         63.3670   47.2060   -2.1680 N.3    51  ASP51      -0.1225
     23  CA        63.1250   48.6240   -1.8930 C.3    51  ASP51       0.1805
     24  C         64.0650   49.2530   -0.8790 C.2    51  ASP51       0.2597
     25  O         64.3000   50.4620   -0.9070 O.2    51  ASP51      -0.2718
     26  CB        61.6970   48.8250   -1.4000 C.3    51  ASP51       0.1424
     27  CG        60.6820   48.1950   -2.3130 C.2    51  ASP51       0.3668
     28  OD1       59.4680   48.3380   -2.0450 O.co2  51  ASP51      -0.2456
     29  OD2       61.1040   47.5500   -3.2990 O.co2  51  ASP51      -0.2456
     30  N         64.5920   48.4380    0.0240 N.am   52  LEU52      -0.1979
     31  CA        65.4820   48.9350    1.0600 C.3    52  LEU52       0.1596
     32  C         66.9410   48.6880    0.7210 C.2    52  LEU52       0.2287
     33  O         67.8110   48.7610    1.5910 O.2    52  LEU52      -0.2864
     34  CB        65.1330   48.2590    2.3790 C.3    52  LEU52       0.0297
     35  CG        63.6530   48.3850    2.7440 C.3    52  LEU52       0.0022
     36  CD1       63.2540   47.2200    3.6160 C.3    52  LEU52       0.0001
     37  CD2       63.3940   49.7130    3.4330 C.3    52  LEU52       0.0001
     38  N         71.0690   50.4550    6.4300 N.3    57  PHE57      -0.1241
     39  CA        70.8290   49.3110    7.3010 C.3    57  PHE57       0.1605
     40  C         70.5520   48.0400    6.4970 C.2    57  PHE57       0.2264
     41  O         70.3340   46.9630    7.0660 O.2    57  PHE57      -0.2867
     42  CB        69.6400   49.6070    8.2140 C.3    57  PHE57       0.0534
     43  CG        68.3470   49.8120    7.4780 C.ar   57  PHE57      -0.0203
     44  CD1       67.6150   48.7250    7.0070 C.ar   57  PHE57      -0.0042
     45  CD2       67.8540   51.1000    7.2590 C.ar   57  PHE57      -0.0042
     46  CE1       66.4100   48.9130    6.3310 C.ar   57  PHE57      -0.0003
     47  CE2       66.6490   51.3010    6.5850 C.ar   57  PHE57      -0.0003
     48  CZ        65.9240   50.2040    6.1210 C.ar   57  PHE57      -0.0000
     49  N         72.9980   44.9670    7.1590 N.3    60  ASN60      -0.1225
     50  CA        72.7070   44.3670    8.4590 C.3    60  ASN60       0.1785
     51  C         71.4270   43.5570    8.3780 C.2    60  ASN60       0.2597
     52  O         71.3130   42.4840    8.9720 O.2    60  ASN60      -0.2718
     53  CB        72.5430   45.4540    9.5150 C.3    60  ASN60       0.1169
     54  CG        73.7810   46.3060    9.6590 C.2    60  ASN60       0.2627
     55  OD1       74.8380   45.8180   10.0710 O.2    60  ASN60      -0.2716
     56  ND2       73.6640   47.5890    9.3080 N.am   60  ASN60      -0.0877
     57  N         70.4700   44.0980    7.6340 N.am   61  LEU61      -0.1980
     58  CA        69.1690   43.4790    7.4310 C.3    61  LEU61       0.1596
     59  C         69.3240   42.1030    6.7840 C.2    61  LEU61       0.2287
     60  O         68.7930   41.1130    7.2760 O.2    61  LEU61      -0.2864
     61  CB        68.3140   44.3820    6.5330 C.3    61  LEU61       0.0297
     62  CG        66.7840   44.2990    6.5380 C.3    61  LEU61       0.0022
     63  CD1       66.2480   45.0650    5.3320 C.3    61  LEU61       0.0001
     64  CD2       66.3170   42.8690    6.4800 C.3    61  LEU61       0.0001
     65  N         70.8160   39.6450    9.0230 N.3    64  TYR64      -0.1241
     66  CA        69.8670   39.3300   10.0830 C.3    64  TYR64       0.1605
     67  C         68.8870   38.2680    9.5690 C.2    64  TYR64       0.2264
     68  O         68.7180   37.2140   10.1860 O.2    64  TYR64      -0.2867
     69  CB        69.1340   40.6120   10.4900 C.3    64  TYR64       0.0534
     70  CG        67.7620   40.4340   11.1090 C.ar   64  TYR64      -0.0201
     71  CD1       67.5710   39.6480   12.2500 C.ar   64  TYR64      -0.0009
     72  CD2       66.6590   41.1110   10.5820 C.ar   64  TYR64      -0.0009
     73  CE1       66.3100   39.5500   12.8510 C.ar   64  TYR64       0.0417
     74  CE2       65.4030   41.0230   11.1680 C.ar   64  TYR64       0.0417
     75  CZ        65.2300   40.2470   12.3000 C.ar   64  TYR64       0.1957
     76  OH        63.9820   40.1990   12.8830 O.3    64  TYR64      -0.2866
     77  N         48.5420   43.2660    8.7480 N.3    85  ARG85      -0.1245
     78  CA        49.3280   44.4750    9.0000 C.3    85  ARG85       0.1563
     79  C         48.9980   44.9980   10.3940 C.2    85  ARG85       0.2260
     80  O         49.8960   45.2330   11.1970 O.2    85  ARG85      -0.2867
     81  CB        49.0080   45.5490    7.9570 C.3    85  ARG85       0.0307
     82  CG        49.5620   45.2850    6.5700 C.3    85  ARG85       0.0489
     83  CD        50.6860   46.2710    6.2450 C.3    85  ARG85       0.2205
     84  NE        50.2950   47.6610    6.5110 N.pl3  85  ARG85      -0.0865
     85  CZ        51.0490   48.7220    6.2280 C.cat  85  ARG85       0.5346
     86  NH1       50.6170   49.9460    6.5070 N.pl3  85  ARG85       0.1354
     87  NH2       52.2340   48.5560    5.6570 N.pl3  85  ARG85       0.1354
     88  N         56.1640   49.2880   12.4320 N.3    91  THR91      -0.1218
     89  CA        57.5220   48.7950   12.2430 C.3    91  THR91       0.1862
     90  C         58.3840   48.8800   13.5000 C.2    91  THR91       0.2287
     91  O         59.0630   47.9230   13.8510 O.2    91  THR91      -0.2866
     92  CB        58.2220   49.5410   11.0880 C.3    91  THR91       0.1770
     93  OG1       57.4320   49.4260    9.8990 O.3    91  THR91      -0.2211
     94  CG2       59.5870   48.9330   10.8180 C.3    91  THR91       0.0375
     95  N         53.9730   43.1700   17.3980 N.3   102  ARG102     -0.1245
     96  CA        55.1840   43.9200   17.7050 C.3   102  ARG102      0.1563
     97  C         55.0250   44.7270   18.9980 C.2   102  ARG102      0.2260
     98  O         55.9810   44.9100   19.7610 O.2   102  ARG102     -0.2867
     99  CB        55.5490   44.8360   16.5460 C.3   102  ARG102      0.0307
    100  CG        56.0470   44.0810   15.3410 C.3   102  ARG102      0.0489
    101  CD        56.2770   45.0190   14.1870 C.3   102  ARG102      0.2205
    102  NE        56.7690   44.3180   13.0130 N.pl3 102  ARG102     -0.0865
    103  CZ        56.6850   44.7880   11.7730 C.cat 102  ARG102      0.5346
    104  NH1       57.1660   44.0760   10.7590 N.pl3 102  ARG102      0.1354
    105  NH2       56.1080   45.9620   11.5420 N.pl3 102  ARG102      0.1354
    106  N         63.2620   48.0390   16.2770 N.3   109  THR109     -0.1203
    107  CA        62.9000   47.8950   14.8680 C.3   109  THR109      0.1994
    108  C         63.6660   46.8160   14.1250 C.2   109  THR109      0.2618
    109  O         63.0960   46.1190   13.2920 O.2   109  THR109     -0.2717
    110  CB        63.0880   49.2280   14.1040 C.3   109  THR109      0.1784
    111  OG1       62.0560   50.1430   14.4850 O.3   109  THR109     -0.2211
    112  CG2       63.0300   48.9980   12.5980 C.3   109  THR109      0.0376
    113  N         64.9530   46.6850   14.4270 N.am  110  GLY110     -0.1956
    114  CA        65.7810   45.7000   13.7550 C.3   110  GLY110      0.1869
    115  C         65.5840   44.2660   14.2020 C.2   110  GLY110      0.2309
    116  O         66.2930   43.3700   13.7420 O.2   110  GLY110     -0.2863
    117  N         62.0410   43.0490   14.8740 N.3   112  ASN112     -0.1240
    118  CA        60.5940   43.0480   15.0350 C.3   112  ASN112      0.1653
    119  C         59.8580   41.7350   14.8290 C.2   112  ASN112      0.2266
    120  O         58.6910   41.7350   14.4480 O.2   112  ASN112     -0.2867
    121  CB        59.9500   44.1360   14.1650 C.3   112  ASN112      0.1155
    122  CG        60.5040   44.1710   12.7700 C.2   112  ASN112      0.2627
    123  OD1       60.8100   43.1340   12.1880 O.2   112  ASN112     -0.2716
    124  ND2       60.6240   45.3670   12.2140 N.am  112  ASN112     -0.0877
    125  N         58.3750   39.7290   13.1990 N.3   114  VAL114     -0.1231
    126  CA        57.4520   39.2890   12.1570 C.3   114  VAL114      0.1692
    127  C         57.3310   40.2040   10.9440 C.2   114  VAL114      0.2592
    128  O         57.6450   41.3940   11.0120 O.2   114  VAL114     -0.2718
    129  CB        56.0420   39.0830   12.7490 C.3   114  VAL114      0.0266
    130  CG1       55.4480   40.4260   13.1450 C.3   114  VAL114      0.0020
    131  CG2       55.1500   38.3690   11.7540 C.3   114  VAL114      0.0020
    132  N         56.8590   39.6250    9.8420 N.am  115  HIS115     -0.1962
    133  CA        56.6580   40.3390    8.5930 C.3   115  HIS115      0.1787
    134  C         55.2870   40.0510    8.0110 C.2   115  HIS115      0.2620
    135  O         54.7030   39.0130    8.2790 O.2   115  HIS115     -0.2715
    136  CB        57.7150   39.9390    7.5530 C.3   115  HIS115      0.0785
    137  CG        57.3360   40.2940    6.1430 C.ar  115  HIS115      0.0821
    138  ND1       57.4710   41.5640    5.6230 N.ar  115  HIS115     -0.2267
    139  CD2       56.7540   39.5550    5.1700 C.ar  115  HIS115      0.1154
    140  CE1       56.9850   41.5920    4.3940 C.ar  115  HIS115      0.1986
    141  NE2       56.5430   40.3850    4.0970 N.ar  115  HIS115     -0.2212
    142  N         54.7920   40.9720    7.1950 N.am  116  GLY116     -0.1954
    143  CA        53.5070   40.7920    6.5510 C.3   116  GLY116      0.1869
    144  C         53.4690   41.6740    5.3220 C.2   116  GLY116      0.2309
    145  O         53.8800   42.8340    5.3860 O.2   116  GLY116     -0.2863
    146  N         52.5420   44.2780    2.6100 N.3   118  ASP118     -0.1239
    147  CA        51.8560   45.5300    2.8880 C.3   118  ASP118      0.1674
    148  C         50.6800   45.7840    1.9450 C.2   118  ASP118      0.2266
    149  O         49.9260   46.7460    2.1220 O.2   118  ASP118     -0.2867
    150  CB        52.8370   46.7170    2.8880 C.3   118  ASP118      0.1410
    151  CG        53.7580   46.7230    1.6950 C.2   118  ASP118      0.3668
    152  OD1       53.3250   46.2720    0.6160 O.co2 118  ASP118     -0.2456
    153  OD2       54.9070   47.1980    1.8350 O.co2 118  ASP118     -0.2456
@<TRIPOS>BOND
     1    29    27   ar
     2    27    28   ar
     3    27    26    1
     4    22    23    1
     5    23    26    1
     6    23    24    1
     7    25    24    2
     8    24    30   am
     9    12    13    2
    10    12    11    1
    11    30    31    1
    12    10    11    1
    13    11    14    1
    14   152   151   ar
    15    32    31    1
    16    32    33    2
    17    31    34    1
    18   151   153   ar
    19   151   150    1
    20    14    15    1
    21   148   149    2
    22   148   147    1
    23    34    35    1
    24   146   147    1
    25    35    37    1
    26    35    36    1
    27   147   150    1
    28    15    16   ar
    29    15    17   ar
    30    16    18   ar
    31    17    19   ar
    32   141   140   ar
    33   141   139   ar
    34   140   138   ar
    35    18    20   ar
    36    19    20   ar
    37    20    21    1
    38   139   137   ar
    39   144   145    2
    40   144   143    1
    41    63    62    1
    42   138   137   ar
    43    87    85    1
    44    48    46   ar
    45    48    47   ar
    46   137   136    1
    47    85    86    1
    48    85    84    2
    49    83    84    1
    50    83    82    1
    51    46    44   ar
    52    38    39    1
    53    64    62    1
    54    40    41    2
    55    40    39    1
    56    61    62    1
    57    61    58    1
    58   143   142    1
    59    82    81    1
    60    47    45   ar
    61    59    60    2
    62    59    58    1
    63    44    43   ar
    64    49    50    1
    65   142   134   am
    66    45    43   ar
    67    39    42    1
    68    58    57    1
    69    43    42    1
    70   136   133    1
    71    57    51   am
    72    81    78    1
    73   134   135    2
    74   134   133    1
    75    51    50    1
    76    51    52    2
    77    50    53    1
    78   133   132    1
    79    77    78    1
    80    78    79    1
    81    65    66    1
    82    56    54   am
    83     8     9    1
    84     8     7    1
    85    53    54    1
    86    67    66    1
    87    67    68    2
    88    54    55    2
    89   132   127   am
    90    93    92    1
    91    66    69    1
    92     7     6    1
    93    79    80    2
    94    69    70    1
    95    72    70   ar
    96    72    74   ar
    97     6     5    1
    98   104   103    1
    99    94    92    1
   100   127   128    2
   101   127   126    1
   102    92    89    1
   103    70    71   ar
   104    74    75   ar
   105     2     1    1
   106     2     5    1
   107     2     3    1
   108   105   103    1
   109   131   129    1
   110   103   102    2
   111   126   129    1
   112   126   125    1
   113   123   122    2
   114   124   122   am
   115    89    88    1
   116    89    90    1
   117    71    73   ar
   118    75    73   ar
   119    75    76    1
   120     3     4    2
   121   112   110    1
   122   129   130    1
   123   122   121    1
   124   102   101    1
   125   109   108    2
   126    90    91    2
   127   116   115    2
   128   114   115    1
   129   114   113    1
   130   110   111    1
   131   110   107    1
   132   108   113   am
   133   108   107    1
   134   121   118    1
   135   101   100    1
   136   120   119    2
   137   119   118    1
   138   107   106    1
   139   117   118    1
   140   100    99    1
   141    99    96    1
   142    95    96    1
   143    96    97    1
   144    97    98    2
