@<TRIPOS>MOLECULE
tmp/1s5kA00.pdb
 193 189 0 0 0
SMALL
GASTEIGER

@<TRIPOS>ATOM
      1  N         22.8740   46.6910   19.9210 N.3    29  LEU29      -0.1231
      2  CA        23.1250   46.8980   21.3560 C.3    29  LEU29       0.1693
      3  C         24.5480   46.4040   21.6470 C.2    29  LEU29       0.2592
      4  O         25.3400   47.1140   22.2830 O.2    29  LEU29      -0.2718
      5  CB        22.1330   46.0720   22.2280 C.3    29  LEU29       0.0284
      6  CG        22.3710   46.1610   23.7440 C.3    29  LEU29       0.0019
      7  CD1       22.4160   47.6440   24.1600 C.3    29  LEU29       0.0001
      8  CD2       21.2460   45.4690   24.5190 C.3    29  LEU29       0.0001
      9  N         24.8520   45.1880   21.1520 N.am   30  TRP30      -0.1976
     10  CA        26.1310   44.5010   21.4090 C.3    30  TRP30       0.1640
     11  C         26.8840   44.1110   20.1420 C.2    30  TRP30       0.2290
     12  O         26.8030   42.9550   19.6980 O.2    30  TRP30      -0.2864
     13  CB        25.8770   43.2190   22.2340 C.3    30  TRP30       0.0576
     14  CG        25.4330   43.5020   23.6500 C.ar   30  TRP30       0.0006
     15  CD1       26.1320   44.2190   24.6030 C.ar   30  TRP30       0.0946
     16  CD2       24.2570   42.9780   24.3340 C.ar   30  TRP30       0.0152
     17  NE1       25.4730   44.1540   25.8240 N.ar   30  TRP30      -0.2442
     18  CE2       24.3330   43.4040   25.6870 C.ar   30  TRP30       0.0810
     19  CE3       23.1670   42.1910   23.9350 C.ar   30  TRP30       0.0012
     20  CZ2       23.3680   43.0720   26.6300 C.ar   30  TRP30       0.0191
     21  CZ3       22.1960   41.8550   24.8800 C.ar   30  TRP30       0.0001
     22  CH2       22.3050   42.3010   26.2150 C.ar   30  TRP30       0.0015
     23  N         18.8860   41.9130   31.5330 N.3    87  GLU87      -0.1231
     24  CA        20.2190   41.6500   30.9950 C.3    87  GLU87       0.1699
     25  C         20.6550   42.6090   29.8960 C.2    87  GLU87       0.2593
     26  O         21.8790   42.7550   29.6340 O.2    87  GLU87      -0.2718
     27  CB        20.3140   40.1790   30.4990 C.3    87  GLU87       0.0402
     28  CG        20.0150   39.0930   31.5470 C.3    87  GLU87       0.1161
     29  CD        21.1220   38.8380   32.6070 C.2    87  GLU87       0.3649
     30  OE1       22.2650   39.3180   32.5020 O.co2  87  GLU87      -0.2457
     31  OE2       20.8310   38.0960   33.5550 O.co2  87  GLU87      -0.2457
     32  N         19.6720   43.2390   29.2530 N.am   88  GLY88      -0.1942
     33  CA        19.9150   44.1860   28.1880 C.3    88  GLY88       0.2014
     34  C         18.6210   44.7820   27.6490 C.2    88  GLY88       0.2639
     35  O         17.5560   44.1480   27.7220 O.2    88  GLY88      -0.2714
     36  N         18.6790   46.0100   27.1330 N.am   89  ILE89      -0.1963
     37  CA        17.5210   46.6400   26.5720 C.3    89  ILE89       0.1727
     38  C         17.9470   47.6470   25.5220 C.2    89  ILE89       0.2616
     39  O         18.9150   48.4180   25.6600 O.2    89  ILE89      -0.2715
     40  CB        16.5970   47.2700   27.6530 C.3    89  ILE89       0.0290
     41  CG1       15.3620   47.8800   26.9470 C.3    89  ILE89       0.0022
     42  CG2       17.3270   48.2970   28.4540 C.3    89  ILE89       0.0023
     43  CD1       14.3260   48.3750   27.9200 C.3    89  ILE89       0.0001
     44  N         17.2180   47.6390   24.4300 N.am   90  PHE90      -0.1960
     45  CA        17.5850   48.4960   23.3230 C.3    90  PHE90       0.1771
     46  C         16.3230   48.9080   22.5390 C.2    90  PHE90       0.2619
     47  O         15.4130   48.0830   22.3440 O.2    90  PHE90      -0.2715
     48  CB        18.5400   47.7290   22.3660 C.3    90  PHE90       0.0574
     49  CG        18.8510   48.4990   21.0780 C.ar   90  PHE90      -0.0200
     50  CD1       19.9350   49.3960   21.0120 C.ar   90  PHE90      -0.0042
     51  CD2       18.0560   48.3390   19.9670 C.ar   90  PHE90      -0.0042
     52  CE1       20.2100   50.1060   19.8560 C.ar   90  PHE90      -0.0003
     53  CE2       18.3240   49.0510   18.8020 C.ar   90  PHE90      -0.0003
     54  CZ        19.3940   49.9330   18.7350 C.ar   90  PHE90      -0.0000
     55  N         16.3030   50.1750   22.1030 N.am   91  VAL91      -0.1977
     56  CA        15.2080   50.7620   21.3250 C.3    91  VAL91       0.1596
     57  C         15.8580   51.5460   20.1560 C.2    91  VAL91       0.2287
     58  O         16.8000   52.3470   20.3800 O.2    91  VAL91      -0.2864
     59  CB        14.3860   51.7630   22.2020 C.3    91  VAL91       0.0276
     60  CG1       13.2970   52.4750   21.3470 C.3    91  VAL91       0.0022
     61  CG2       13.7560   51.0160   23.4090 C.3    91  VAL91       0.0022
     62  N         13.0300   56.3390   20.3040 N.3    96  ARG96      -0.1231
     63  CA        13.2670   56.6290   21.7240 C.3    96  ARG96       0.1694
     64  C         12.4000   57.7760   22.2470 C.2    96  ARG96       0.2592
     65  O         11.7480   58.5210   21.4490 O.2    96  ARG96      -0.2718
     66  CB        14.7510   56.9120   22.0040 C.3    96  ARG96       0.0321
     67  CG        15.5900   55.6700   21.7450 C.3    96  ARG96       0.0489
     68  CD        17.0700   55.9040   21.7790 C.3    96  ARG96       0.2205
     69  NE        17.7300   54.7180   21.3030 N.pl3  96  ARG96      -0.0865
     70  CZ        19.0360   54.6050   21.0440 C.cat  96  ARG96       0.5346
     71  NH1       19.8860   55.6160   21.2060 N.pl3  96  ARG96       0.1354
     72  NH2       19.4820   53.4500   20.5850 N.pl3  96  ARG96       0.1354
     73  N         12.3540   57.8630   23.5780 N.am   97  GLN97      -0.1966
     74  CA        11.5980   58.8770   24.2700 C.3    97  GLN97       0.1733
     75  C         10.1300   58.8590   23.8840 C.2    97  GLN97       0.2616
     76  O          9.4640   59.9250   23.6690 O.2    97  GLN97      -0.2715
     77  CB        12.2550   60.2350   24.0330 C.3    97  GLN97       0.0408
     78  CG        13.6210   60.2300   24.6280 C.3    97  GLN97       0.0908
     79  CD        14.2240   61.6000   24.7780 C.2    97  GLN97       0.2608
     80  OE1       14.7000   62.1790   23.8010 O.2    97  GLN97      -0.2717
     81  NE2       14.2180   62.1360   26.0230 N.am   97  GLN97      -0.0878
     82  N          9.6080   57.6380   23.7930 N.am   98  ARG98      -0.1963
     83  CA         8.2060   57.4760   23.4660 C.3    98  ARG98       0.1729
     84  C          7.5910   56.4780   24.3730 C.2    98  ARG98       0.2617
     85  O          6.4490   56.0480   24.1300 O.2    98  ARG98      -0.2715
     86  CB         8.0370   57.0380   22.0250 C.3    98  ARG98       0.0348
     87  CG         8.5820   58.0330   20.9910 C.3    98  ARG98       0.0492
     88  CD         8.4220   57.4360   19.6040 C.3    98  ARG98       0.2205
     89  NE         7.0180   57.3310   19.2100 N.pl3  98  ARG98      -0.0865
     90  CZ         6.3080   58.3580   18.7400 C.cat  98  ARG98       0.5346
     91  NH1        6.8900   59.5830   18.6230 N.pl3  98  ARG98       0.1354
     92  NH2        5.0520   58.1440   18.3420 N.pl3  98  ARG98       0.1354
     93  N          8.3350   56.0800   25.4150 N.am   99  GLY99      -0.1940
     94  CA         7.7960   55.1400   26.4100 C.3    99  GLY99       0.2014
     95  C          7.9610   53.6570   26.1140 C.2    99  GLY99       0.2639
     96  O          7.5170   52.8010   26.8820 O.2    99  GLY99      -0.2714
     97  N          8.6200   53.3470   25.0070 N.am  100  VAL100     -0.1963
     98  CA         8.8770   51.9710   24.6420 C.3   100  VAL100      0.1727
     99  C          9.6590   51.1880   25.7090 C.2   100  VAL100      0.2616
    100  O          9.2180   50.1030   26.2010 O.2   100  VAL100     -0.2715
    101  CB         9.6570   51.9120   23.3200 C.3   100  VAL100      0.0290
    102  CG1       10.0600   50.4500   23.0700 C.3   100  VAL100      0.0023
    103  CG2        8.7630   52.5030   22.1220 C.3   100  VAL100      0.0023
    104  N         10.8130   51.7080   26.0850 N.am  101  ALA101     -0.1963
    105  CA        11.5880   50.9850   27.0730 C.3   101  ALA101      0.1728
    106  C         10.7220   50.8310   28.3160 C.2   101  ALA101      0.2616
    107  O         10.7690   49.8020   29.0050 O.2   101  ALA101     -0.2715
    108  CB        12.8720   51.7460   27.4190 C.3   101  ALA101      0.0334
    109  N          9.9160   51.8430   28.6070 N.am  102  LYS102     -0.1977
    110  CA         9.0980   51.7760   29.7930 C.3   102  LYS102      0.1596
    111  C          8.2440   50.5210   29.8060 C.2   102  LYS102      0.2287
    112  O          8.1300   49.7890   30.8180 O.2   102  LYS102     -0.2864
    113  CB         8.1790   52.9800   29.8750 C.3   102  LYS102      0.0298
    114  CG         7.3990   52.9810   31.1790 C.3   102  LYS102      0.0038
    115  CD         6.6270   54.2300   31.2990 C.3   102  LYS102      0.0206
    116  CE         6.0320   54.3530   32.6680 C.3   102  LYS102      0.1093
    117  NZ         5.1860   55.5920   32.7300 N.3   102  LYS102     -0.1314
    118  N         21.9010   46.8650   35.4380 N.3   123  ASP123     -0.1225
    119  CA        23.2080   47.4360   35.6590 C.3   123  ASP123      0.1805
    120  C         23.5300   48.2350   34.4350 C.2   123  ASP123      0.2598
    121  O         22.8620   48.1270   33.4350 O.2   123  ASP123     -0.2718
    122  CB        24.2650   46.3500   35.9640 C.3   123  ASP123      0.1424
    123  CG        24.7180   45.6030   34.7370 C.2   123  ASP123      0.3668
    124  OD1       24.7500   46.1810   33.6460 O.co2 123  ASP123     -0.2456
    125  OD2       25.0910   44.4460   34.8470 O.co2 123  ASP123     -0.2456
    126  N         24.5190   49.0930   34.5190 N.am  124  THR124     -0.1953
    127  CA        24.8160   49.8600   33.3600 C.3   124  THR124      0.1897
    128  C         26.1690   50.4600   33.5570 C.2   124  THR124      0.2313
    129  O         26.6550   50.5790   34.6750 O.2   124  THR124     -0.2863
    130  CB        23.7170   50.9280   33.0960 C.3   124  THR124      0.1794
    131  OG1       23.8100   51.3190   31.7270 O.3   124  THR124     -0.2208
    132  CG2       23.8900   52.1860   33.9220 C.3   124  THR124      0.0378
    133  N         27.4020   55.5650   30.4540 N.3   128  ASN128     -0.1240
    134  CA        26.0360   55.6380   29.9110 C.3   128  ASN128      0.1653
    135  C         25.1050   56.5270   30.7120 C.2   128  ASN128      0.2266
    136  O         24.2170   56.0370   31.4280 O.2   128  ASN128     -0.2867
    137  CB        25.3930   54.2480   29.8560 C.3   128  ASN128      0.1155
    138  CG        24.4740   54.1050   28.6780 C.2   128  ASN128      0.2627
    139  OD1       23.8260   55.0850   28.2540 O.2   128  ASN128     -0.2716
    140  ND2       24.4150   52.9060   28.1180 N.am  128  ASN128     -0.0877
    141  N         22.7220   58.4670   29.6400 N.3   130  ILE130     -0.1231
    142  CA        21.3270   58.3430   29.1870 C.3   130  ILE130      0.1692
    143  C         20.6630   57.1270   29.8570 C.2   130  ILE130      0.2592
    144  O         19.5440   57.2460   30.3330 O.2   130  ILE130     -0.2718
    145  CB        21.2020   58.2080   27.5990 C.3   130  ILE130      0.0266
    146  CG1       21.4300   59.5800   26.9250 C.3   130  ILE130      0.0019
    147  CG2       19.7680   57.6940   27.2170 C.3   130  ILE130      0.0020
    148  CD1       21.1810   59.5520   25.3480 C.3   130  ILE130      0.0001
    149  N         21.3530   55.9770   29.9230 N.am  131  SER131     -0.1952
    150  CA        20.7930   54.7780   30.5630 C.3   131  SER131      0.1924
    151  C         20.6270   55.0060   32.0920 C.2   131  SER131      0.2314
    152  O         19.6590   54.5490   32.7190 O.2   131  SER131     -0.2863
    153  CB        21.6770   53.5470   30.2640 C.3   131  SER131      0.2116
    154  OG        21.3830   52.4780   31.1500 O.3   131  SER131     -0.2180
    155  N         19.8990   57.9360   33.4510 N.3   133  LYS133     -0.1231
    156  CA        18.6980   58.7740   33.6600 C.3   133  LYS133      0.1693
    157  C         17.4590   57.9220   33.3890 C.2   133  LYS133      0.2592
    158  O         16.3870   58.1400   33.9730 O.2   133  LYS133     -0.2718
    159  CB        18.6460   59.9790   32.6840 C.3   133  LYS133      0.0285
    160  CG        19.7440   61.0310   32.8240 C.3   133  LYS133      0.0035
    161  CD        19.5910   62.0130   31.7040 C.3   133  LYS133      0.0206
    162  CE        20.8580   62.8110   31.4150 C.3   133  LYS133      0.1093
    163  NZ        21.2390   63.6460   32.5640 N.3   133  LYS133     -0.1314
    164  N         17.5710   56.9810   32.4540 N.am  134  VAL134     -0.1966
    165  CA        16.4160   56.1400   32.1820 C.3   134  VAL134      0.1727
    166  C         16.0590   55.2990   33.3670 C.2   134  VAL134      0.2616
    167  O         14.9050   55.1840   33.6980 O.2   134  VAL134     -0.2715
    168  CB        16.6250   55.2270   30.9470 C.3   134  VAL134      0.0290
    169  CG1       15.5820   54.0590   30.9480 C.3   134  VAL134      0.0023
    170  CG2       16.4450   56.0630   29.7030 C.3   134  VAL134      0.0023
    171  N         17.0370   54.6980   34.0210 N.am  135  HIS135     -0.1973
    172  CA        16.7390   53.8430   35.1900 C.3   135  HIS135      0.1656
    173  C         16.1320   54.6580   36.3420 C.2   135  HIS135      0.2291
    174  O         15.2130   54.2070   37.0530 O.2   135  HIS135     -0.2864
    175  CB        18.0290   53.1460   35.6860 C.3   135  HIS135      0.0771
    176  CG        18.4540   51.9760   34.8400 C.ar  135  HIS135      0.0820
    177  ND1       19.1800   52.1130   33.6720 N.ar  135  HIS135     -0.2267
    178  CD2       18.2260   50.6470   34.9780 C.ar  135  HIS135      0.1154
    179  CE1       19.3810   50.9250   33.1300 C.ar  135  HIS135      0.1986
    180  NE2       18.8140   50.0180   33.9070 N.ar  135  HIS135     -0.2212
    181  N         14.5160   57.6020   36.1570 N.3   137  ALA137     -0.1231
    182  CA        13.1840   58.0700   35.8350 C.3   137  ALA137      0.1694
    183  C         12.1870   56.9370   35.8870 C.2   137  ALA137      0.2591
    184  O         10.9830   57.1840   35.9390 O.2   137  ALA137     -0.2718
    185  CB        13.1560   58.7040   34.4700 C.3   137  ALA137      0.0304
    186  N         12.6350   55.6930   35.8550 N.am  138  LEU138     -0.1980
    187  CA        11.6540   54.5990   35.9010 C.3   138  LEU138      0.1596
    188  C         11.4970   53.9730   37.3030 C.2   138  LEU138      0.2287
    189  O         10.9840   52.8600   37.4530 O.2   138  LEU138     -0.2864
    190  CB        12.0380   53.5260   34.8840 C.3   138  LEU138      0.0297
    191  CG        11.9470   53.9100   33.4000 C.3   138  LEU138      0.0022
    192  CD1       12.3910   52.7540   32.5240 C.3   138  LEU138      0.0001
    193  CD2       10.4760   54.2950   33.0490 C.3   138  LEU138      0.0001
@<TRIPOS>BOND
     1    92    90    1
     2    91    90    1
     3    54    53   ar
     4    54    52   ar
     5    90    89    2
     6    53    51   ar
     7    89    88    1
     8    88    87    1
     9    12    11    2
    10    52    50   ar
    11     1     2    1
    12    51    49   ar
    13    11    10    1
    14    57    58    2
    15    57    56    1
    16    62    63    1
    17    72    70    1
    18    87    86    1
    19    50    49   ar
    20    70    71    1
    21    70    69    2
    22    49    48    1
    23     9    10    1
    24     9     3   am
    25    69    68    1
    26    56    55    1
    27    56    59    1
    28    60    59    1
    29     2     3    1
    30     2     5    1
    31    10    13    1
    32    65    64    2
    33     3     4    2
    34    63    66    1
    35    63    64    1
    36    67    68    1
    37    67    66    1
    38    86    83    1
    39    55    46   am
    40   103   101    1
    41    59    61    1
    42     5     6    1
    43    13    14    1
    44    64    73   am
    45    47    46    2
    46    48    45    1
    47    46    45    1
    48   102   101    1
    49   101    98    1
    50    45    44    1
    51    83    82    1
    52    83    84    1
    53    73    74    1
    54    14    16   ar
    55    14    15   ar
    56    76    75    2
    57     6     7    1
    58     6     8    1
    59    82    75   am
    60    80    79    2
    61    75    74    1
    62    19    16   ar
    63    19    21   ar
    64    77    74    1
    65    77    78    1
    66    85    84    2
    67    16    18   ar
    68    84    93   am
    69    44    38   am
    70    15    17   ar
    71    78    79    1
    72    98    97    1
    73    98    99    1
    74    79    81   am
    75    21    22   ar
    76    97    95   am
    77   148   146    1
    78    93    94    1
    79    38    39    2
    80    38    37    1
    81    18    17   ar
    82    18    20   ar
    83    99   104   am
    84    99   100    2
    85   104   105    1
    86    95    94    1
    87    95    96    2
    88    22    20   ar
    89    37    36    1
    90    37    40    1
    91   146   145    1
    92    41    40    1
    93    41    43    1
    94   105   108    1
    95   105   106    1
    96    36    34   am
    97   147   145    1
    98   145   142    1
    99    34    35    2
   100    34    33    1
   101    40    42    1
   102   140   138   am
   103    33    32    1
   104   139   138    2
   105   106   109   am
   106   106   107    2
   107   109   110    1
   108   138   137    1
   109   142   141    1
   110   142   143    1
   111    32    25   am
   112    26    25    2
   113   170   168    1
   114   110   111    1
   115   110   113    1
   116   111   112    2
   117   137   134    1
   118   143   149   am
   119   143   144    2
   120   113   114    1
   121    25    24    1
   122   134   133    1
   123   134   135    1
   124   149   150    1
   125   153   150    1
   126   153   154    1
   127    27    24    1
   128    27    28    1
   129   150   151    1
   130   135   136    2
   131   168   169    1
   132   168   165    1
   133    24    23    1
   134   114   115    1
   135   115   116    1
   136   162   161    1
   137   162   163    1
   138    28    29    1
   139   161   160    1
   140   131   130    1
   141   151   152    2
   142   165   164    1
   143   165   166    1
   144   164   157   am
   145    30    29   ar
   146   192   191    1
   147    29    31   ar
   148   116   117    1
   149   159   160    1
   150   159   156    1
   151   193   191    1
   152   130   127    1
   153   130   132    1
   154   179   177   ar
   155   179   180   ar
   156   127   128    1
   157   127   126    1
   158   166   167    2
   159   166   171   am
   160   157   156    1
   161   157   158    2
   162   191   190    1
   163   121   120    2
   164   155   156    1
   165   128   129    2
   166   124   123   ar
   167   177   176   ar
   168   180   178   ar
   169   171   172    1
   170   120   126   am
   171   120   119    1
   172   185   182    1
   173   123   125   ar
   174   123   122    1
   175   176   178   ar
   176   176   175    1
   177   190   187    1
   178   172   175    1
   179   172   173    1
   180   118   119    1
   181   119   122    1
   182   182   183    1
   183   182   181    1
   184   186   183   am
   185   186   187    1
   186   183   184    2
   187   187   188    1
   188   173   174    2
   189   188   189    2
