@<TRIPOS>MOLECULE
tmp/1s5lT01.pdb
 93 87 0 0 0
SMALL
GASTEIGER

@<TRIPOS>ATOM
      1  N        -10.7470   10.6950   -4.3260 N.3    25  ILE25      -0.1245
      2  CA       -11.0500    9.6690   -3.3240 C.3    25  ILE25       0.1561
      3  C         -9.8570    9.5570   -2.4040 C.2    25  ILE25       0.2260
      4  O         -9.9750    9.4460   -1.1890 O.2    25  ILE25      -0.2867
      5  CB       -11.2490    8.2770   -3.9700 C.3    25  ILE25       0.0252
      6  CG1      -12.5240    8.2590   -4.7890 C.3    25  ILE25       0.0019
      7  CG2      -11.3770    7.2090   -2.9120 C.3    25  ILE25       0.0019
      8  CD1      -12.7060    6.9790   -5.4670 C.3    25  ILE25       0.0001
      9  N        -13.8340  -11.2560   11.7000 N.3    80  LEU80      -0.1245
     10  CA       -14.0350  -11.2150   10.2580 C.3    80  LEU80       0.1561
     11  C        -15.1780  -10.3240    9.7910 C.2    80  LEU80       0.2260
     12  O        -15.2230   -9.8920    8.6430 O.2    80  LEU80      -0.2867
     13  CB       -14.2490  -12.6320    9.7490 C.3    80  LEU80       0.0270
     14  CG       -14.0700  -12.8430    8.2430 C.3    80  LEU80       0.0019
     15  CD1      -12.7650  -12.2420    7.7460 C.3    80  LEU80       0.0001
     16  CD2      -14.0830  -14.3320    7.9700 C.3    80  LEU80       0.0001
     17  N         -9.1350   -0.0100    6.0210 N.3   106  PHE106     -0.1241
     18  CA        -9.9370    0.1270    4.8300 C.3   106  PHE106      0.1605
     19  C         -9.7840    1.4670    4.0870 C.2   106  PHE106      0.2264
     20  O         -9.5880    1.4790    2.8600 O.2   106  PHE106     -0.2867
     21  CB       -11.3920   -0.1390    5.2020 C.3   106  PHE106      0.0534
     22  CG       -11.6370   -1.5460    5.6540 C.ar  106  PHE106     -0.0203
     23  CD1      -12.1440   -1.8130    6.9200 C.ar  106  PHE106     -0.0042
     24  CD2      -11.3800   -2.6170    4.7960 C.ar  106  PHE106     -0.0042
     25  CE1      -12.3950   -3.1330    7.3220 C.ar  106  PHE106     -0.0003
     26  CE2      -11.6290   -3.9360    5.1930 C.ar  106  PHE106     -0.0003
     27  CZ       -12.1350   -4.1920    6.4530 C.ar  106  PHE106     -0.0000
     28  N         -6.1630    1.5130    2.5240 N.3   109  LEU109     -0.1231
     29  CA        -5.8980    0.6860    1.3390 C.3   109  LEU109      0.1693
     30  C         -6.5550    1.3270    0.1170 C.2   109  LEU109      0.2591
     31  O         -5.9200    1.4770   -0.9290 O.2   109  LEU109     -0.2718
     32  CB        -6.4130   -0.7440    1.5150 C.3   109  LEU109      0.0284
     33  CG        -5.7730   -1.6530    2.5700 C.3   109  LEU109      0.0019
     34  CD1       -6.4170   -3.0240    2.5020 C.3   109  LEU109      0.0001
     35  CD2       -4.2960   -1.7900    2.3360 C.3   109  LEU109      0.0001
     36  N         -7.8240    1.7150    0.2620 N.am  110  LEU110     -0.1980
     37  CA        -8.5660    2.3650   -0.8150 C.3   110  LEU110      0.1596
     38  C         -7.7910    3.5760   -1.3050 C.2   110  LEU110      0.2287
     39  O         -7.4740    3.6760   -2.4840 O.2   110  LEU110     -0.2864
     40  CB        -9.9480    2.7910   -0.3300 C.3   110  LEU110      0.0297
     41  CG       -10.8570    1.6390    0.0910 C.3   110  LEU110      0.0022
     42  CD1      -12.1810    2.2070    0.5370 C.3   110  LEU110      0.0001
     43  CD2      -11.0600    0.6670   -1.0650 C.3   110  LEU110      0.0001
     44  N         -4.6000    2.5880   -2.7200 N.3   113  SER113     -0.1202
     45  CA        -4.8250    2.0470   -4.0350 C.3   113  SER113      0.2020
     46  C         -4.8230    3.2290   -5.0190 C.2   113  SER113      0.2619
     47  O         -4.0900    3.2320   -6.0170 O.2   113  SER113     -0.2717
     48  CB        -6.1770    1.3260   -4.0150 C.3   113  SER113      0.2103
     49  OG        -6.4310    0.6010   -5.2010 O.3   113  SER113     -0.2182
     50  N         -5.6380    4.2380   -4.7040 N.am  114  CYS114     -0.1969
     51  CA        -5.7820    5.4470   -5.5190 C.3   114  CYS114      0.1712
     52  C         -4.4870    6.2010   -5.6850 C.2   114  CYS114      0.2296
     53  O         -4.2440    6.8240   -6.7190 O.2   114  CYS114     -0.2864
     54  CB        -6.8160    6.3750   -4.8920 C.3   114  CYS114      0.0983
     55  SG        -8.3640    5.5410   -4.8120 S.3   114  CYS114     -0.0798
     56  N         -1.6690   -4.7480    1.1850 N.3   144  PHE144     -0.1241
     57  CA        -2.9160   -5.5020    1.0950 C.3   144  PHE144      0.1605
     58  C         -2.7510   -6.9220    1.6070 C.2   144  PHE144      0.2264
     59  O         -3.5320   -7.4010    2.4270 O.2   144  PHE144     -0.2867
     60  CB        -3.3930   -5.5600   -0.3460 C.3   144  PHE144      0.0534
     61  CG        -4.0150   -4.3010   -0.8200 C.ar  144  PHE144     -0.0203
     62  CD1       -3.2560   -3.1530   -0.9760 C.ar  144  PHE144     -0.0042
     63  CD2       -5.3740   -4.2540   -1.1090 C.ar  144  PHE144     -0.0042
     64  CE1       -3.8420   -1.9660   -1.4160 C.ar  144  PHE144     -0.0003
     65  CE2       -5.9720   -3.0750   -1.5500 C.ar  144  PHE144     -0.0003
     66  CZ        -5.2020   -1.9280   -1.7030 C.ar  144  PHE144     -0.0000
     67  N         -4.8250   -7.3560    4.4680 N.3   148  LEU148     -0.1245
     68  CA        -6.0880   -7.9000    4.0210 C.3   148  LEU148      0.1561
     69  C         -6.0520   -9.3950    3.8640 C.2   148  LEU148      0.2260
     70  O         -6.3690  -10.1270    4.7860 O.2   148  LEU148     -0.2867
     71  CB        -6.4760   -7.2620    2.6930 C.3   148  LEU148      0.0270
     72  CG        -7.9520   -7.3090    2.3690 C.3   148  LEU148      0.0019
     73  CD1       -8.6320   -6.4170    3.3420 C.3   148  LEU148      0.0001
     74  CD2       -8.2150   -6.8510    0.9730 C.3   148  LEU148      0.0001
     75  N         -8.1260  -12.2280    5.7670 N.3   152  ILE152     -0.1245
     76  CA        -9.2100  -12.8100    5.0130 C.3   152  ILE152      0.1561
     77  C         -8.9890  -14.2810    4.8370 C.2   152  ILE152      0.2260
     78  O         -9.9390  -15.0570    4.7620 O.2   152  ILE152     -0.2867
     79  CB        -9.3450  -12.2040    3.6590 C.3   152  ILE152      0.0252
     80  CG1       -9.4090  -10.6920    3.7910 C.3   152  ILE152      0.0019
     81  CG2      -10.6260  -12.6850    3.0310 C.3   152  ILE152      0.0019
     82  CD1       -9.5430   -9.9860    2.4660 C.3   152  ILE152      0.0001
     83  N         -9.5860  -10.1220   11.1880 N.3   157  PHE157     -0.1241
     84  CA        -8.6490   -9.0280   11.0590 C.3   157  PHE157      0.1605
     85  C         -7.7250   -9.0260   12.2360 C.2   157  PHE157      0.2264
     86  O         -6.5540   -8.6900   12.0970 O.2   157  PHE157     -0.2867
     87  CB        -9.4020   -7.7170   10.9580 C.3   157  PHE157      0.0534
     88  CG       -10.0980   -7.5480    9.6530 C.ar  157  PHE157     -0.0203
     89  CD1      -11.4810   -7.5620    9.5790 C.ar  157  PHE157     -0.0042
     90  CD2       -9.3600   -7.4250    8.4830 C.ar  157  PHE157     -0.0042
     91  CE1      -12.1250   -7.4570    8.3510 C.ar  157  PHE157     -0.0003
     92  CE2       -9.9860   -7.3180    7.2540 C.ar  157  PHE157     -0.0003
     93  CZ       -11.3740   -7.3350    7.1860 C.ar  157  PHE157     -0.0000
@<TRIPOS>BOND
     1    53    52    2
     2    47    46    2
     3    52    51    1
     4    51    54    1
     5    51    50    1
     6     8     6    1
     7    49    48    1
     8    46    50   am
     9    46    45    1
    10    54    55    1
    11     6     5    1
    12     1     2    1
    13    45    48    1
    14    45    44    1
    15     5     2    1
    16     5     7    1
    17     2     3    1
    18    39    38    2
    19     3     4    2
    20    66    65   ar
    21    66    64   ar
    22    65    63   ar
    23    64    62   ar
    24    38    37    1
    25    63    61   ar
    26    43    41    1
    27    62    61   ar
    28    31    30    2
    29    61    60    1
    30    37    40    1
    31    37    36    1
    32    60    57    1
    33    40    41    1
    34    41    42    1
    35    30    36   am
    36    30    29    1
    37    74    72    1
    38    57    56    1
    39    57    58    1
    40    29    32    1
    41    29    28    1
    42    32    33    1
    43    58    59    2
    44    35    33    1
    45    72    71    1
    46    72    73    1
    47    82    80    1
    48    34    33    1
    49    71    68    1
    50    20    19    2
    51    81    79    1
    52    79    80    1
    53    79    76    1
    54    69    68    1
    55    69    70    2
    56    68    67    1
    57    19    18    1
    58    78    77    2
    59    24    26   ar
    60    24    22   ar
    61    18    21    1
    62    18    17    1
    63    77    76    1
    64    76    75    1
    65    26    27   ar
    66    21    22    1
    67    22    23   ar
    68    27    25   ar
    69    23    25   ar
    70    93    92   ar
    71    93    91   ar
    72    92    90   ar
    73    15    14    1
    74    16    14    1
    75    14    13    1
    76    91    89   ar
    77    90    88   ar
    78    12    11    2
    79    89    88   ar
    80    88    87    1
    81    13    10    1
    82    11    10    1
    83    10     9    1
    84    87    84    1
    85    84    83    1
    86    84    85    1
    87    86    85    2
