@<TRIPOS>MOLECULE
tmp/1s5lZ03.pdb
 92 92 0 0 0
SMALL
GASTEIGER

@<TRIPOS>ATOM
      1  N         49.9140  -15.7730   22.6990 N.3    36  TYR36      -0.1227
      2  CA        48.7790  -15.1870   23.3820 C.3    36  TYR36       0.1736
      3  C         47.5760  -16.0810   23.1290 C.2    36  TYR36       0.2595
      4  O         46.8840  -16.4490   24.0700 O.2    36  TYR36      -0.2718
      5  CB        48.5170  -13.7820   22.8420 C.3    36  TYR36       0.0548
      6  CG        47.6740  -12.8990   23.7290 C.ar   36  TYR36      -0.0200
      7  CD1       47.6250  -13.0960   25.1120 C.ar   36  TYR36      -0.0009
      8  CD2       46.9920  -11.8150   23.2000 C.ar   36  TYR36      -0.0009
      9  CE1       46.9170  -12.2350   25.9390 C.ar   36  TYR36       0.0417
     10  CE2       46.2930  -10.9440   24.0190 C.ar   36  TYR36       0.0417
     11  CZ        46.2560  -11.1610   25.3840 C.ar   36  TYR36       0.1957
     12  OH        45.5380  -10.3090   26.1900 O.3    36  TYR36      -0.2866
     13  N         47.3410  -16.4460   21.8680 N.am   37  ASN37      -0.1960
     14  CA        46.2060  -17.3020   21.5170 C.3    37  ASN37       0.1819
     15  C         46.3920  -18.7640   21.9170 C.2    37  ASN37       0.2622
     16  O         45.5610  -19.6260   21.6340 O.2    37  ASN37      -0.2715
     17  CB        45.9070  -17.2090   20.0200 C.3    37  ASN37       0.1195
     18  CG        44.9700  -18.3070   19.5540 C.2    37  ASN37       0.2630
     19  OD1       44.0340  -18.6620   20.2570 O.2    37  ASN37      -0.2716
     20  ND2       45.2150  -18.8500   18.3670 N.am   37  ASN37      -0.0877
     21  N         47.4960  -19.0420   22.5860 N.am   38  SER38      -0.1950
     22  CA        47.7590  -20.3930   23.0270 C.3    38  SER38       0.1924
     23  C         47.8290  -21.3830   21.8590 C.2    38  SER38       0.2314
     24  O         47.3600  -22.5100   21.9640 O.2    38  SER38      -0.2863
     25  CB        46.6730  -20.8100   24.0140 C.3    38  SER38       0.2116
     26  OG        46.9680  -22.0730   24.5860 O.3    38  SER38      -0.2180
     27  N         50.8080  -21.6150   20.4620 N.3    40  LEU40      -0.1231
     28  CA        52.2040  -21.9710   20.6360 C.3    40  LEU40       0.1693
     29  C         52.2460  -22.4500   22.0760 C.2    40  LEU40       0.2592
     30  O         51.3630  -22.1110   22.8640 O.2    40  LEU40      -0.2718
     31  CB        53.1210  -20.7510   20.4550 C.3    40  LEU40       0.0284
     32  CG        54.6330  -21.0050   20.3320 C.3    40  LEU40       0.0019
     33  CD1       54.8820  -21.7220   19.0240 C.3    40  LEU40       0.0001
     34  CD2       55.4160  -19.7050   20.3490 C.3    40  LEU40       0.0001
     35  N         53.2560  -23.2320   22.4240 N.am   41  ILE41      -0.1966
     36  CA        53.3630  -23.7520   23.7840 C.3    41  ILE41       0.1727
     37  C         54.8300  -23.8580   24.1530 C.2    41  ILE41       0.2616
     38  O         55.5980  -24.5450   23.4830 O.2    41  ILE41      -0.2715
     39  CB        52.6670  -25.1590   23.9010 C.3    41  ILE41       0.0290
     40  CG1       52.9000  -25.7800   25.2920 C.3    41  ILE41       0.0022
     41  CG2       53.1620  -26.0910   22.7900 C.3    41  ILE41       0.0023
     42  CD1       52.2580  -27.1770   25.4570 C.3    41  ILE41       0.0001
     43  N         55.2380  -23.1690   25.2080 N.am   42  LEU42      -0.1977
     44  CA        56.6360  -23.2340   25.6000 C.3    42  LEU42       0.1596
     45  C         56.7770  -23.5890   27.0510 C.2    42  LEU42       0.2287
     46  O         55.8030  -23.5910   27.7950 O.2    42  LEU42      -0.2864
     47  CB        57.3450  -21.9060   25.3160 C.3    42  LEU42       0.0297
     48  CG        57.2520  -21.4210   23.8610 C.3    42  LEU42       0.0022
     49  CD1       57.8930  -20.0740   23.7300 C.3    42  LEU42       0.0001
     50  CD2       57.9320  -22.3870   22.9430 C.3    42  LEU42       0.0001
     51  N         55.8190  -21.0350   29.9730 N.3    45  VAL45      -0.1231
     52  CA        54.9650  -20.0230   29.3800 C.3    45  VAL45       0.1692
     53  C         53.5000  -20.4340   29.5770 C.2    45  VAL45       0.2592
     54  O         52.8220  -20.9790   28.6900 O.2    45  VAL45      -0.2718
     55  CB        55.3580  -19.7970   27.8830 C.3    45  VAL45       0.0266
     56  CG1       54.1400  -19.8360   26.9610 C.3    45  VAL45       0.0020
     57  CG2       56.0820  -18.4630   27.7560 C.3    45  VAL45       0.0020
     58  N         53.0320  -20.1910   30.7960 N.am   46  ASN46      -0.1960
     59  CA        51.6590  -20.5000   31.1790 C.3    46  ASN46       0.1819
     60  C         50.8780  -19.2360   30.8850 C.2    46  ASN46       0.2621
     61  O         51.2260  -18.1630   31.3910 O.2    46  ASN46      -0.2715
     62  CB        51.5750  -20.8050   32.6790 C.3    46  ASN46       0.1195
     63  CG        50.6480  -21.9770   33.0000 C.2    46  ASN46       0.2630
     64  OD1       49.4860  -21.9740   32.6340 O.2    46  ASN46      -0.2716
     65  ND2       51.1710  -22.9820   33.6940 N.am   46  ASN46      -0.0877
     66  N         49.8270  -19.3550   30.0800 N.am   47  VAL47      -0.1963
     67  CA        49.0300  -18.1900   29.7240 C.3    47  VAL47       0.1727
     68  C         47.7990  -17.9490   30.6060 C.2    47  VAL47       0.2617
     69  O         46.8430  -17.3000   30.1930 O.2    47  VAL47      -0.2715
     70  CB        48.6400  -18.2520   28.2220 C.3    47  VAL47       0.0290
     71  CG1       47.6300  -17.1960   27.8680 C.3    47  VAL47       0.0023
     72  CG2       49.8710  -18.0200   27.3820 C.3    47  VAL47       0.0023
     73  N         47.8020  -18.4580   31.8270 N.am   48  SER48      -0.1936
     74  CA        46.6610  -18.1750   32.6740 C.3    48  SER48       0.2055
     75  C         47.1300  -17.1570   33.7130 C.2    48  SER48       0.2643
     76  O         48.3300  -16.9090   33.8580 O.2    48  SER48      -0.2714
     77  CB        46.0990  -19.4520   33.3150 C.3    48  SER48       0.2130
     78  OG        46.9040  -19.9240   34.3720 O.3    48  SER48      -0.2179
     79  N         46.1880  -16.5410   34.4100 N.am   49  TRP49      -0.1973
     80  CA        46.5440  -15.5380   35.4030 C.3    49  TRP49       0.1640
     81  C         47.5930  -16.0680   36.3500 C.2    49  TRP49       0.2290
     82  O         48.4970  -15.3320   36.7420 O.2    49  TRP49      -0.2864
     83  CB        45.3380  -15.1170   36.2660 C.3    49  TRP49       0.0576
     84  CG        44.1570  -14.4980   35.5480 C.ar   49  TRP49       0.0006
     85  CD1       43.1310  -15.1520   34.9270 C.ar   49  TRP49       0.0946
     86  CD2       43.9160  -13.1020   35.3610 C.ar   49  TRP49       0.0152
     87  NE1       42.2720  -14.2450   34.3590 N.ar   49  TRP49      -0.2442
     88  CE2       42.7300  -12.9790   34.6100 C.ar   49  TRP49       0.0810
     89  CE3       44.5920  -11.9430   35.7520 C.ar   49  TRP49       0.0012
     90  CZ2       42.2020  -11.7370   34.2370 C.ar   49  TRP49       0.0191
     91  CZ3       44.0680  -10.7070   35.3850 C.ar   49  TRP49       0.0001
     92  CH2       42.8830  -10.6160   34.6330 C.ar   49  TRP49       0.0015
@<TRIPOS>BOND
     1    20    18   am
     2    33    32    1
     3    18    17    1
     4    18    19    2
     5    17    14    1
     6    32    34    1
     7    32    31    1
     8    31    28    1
     9    27    28    1
    10    28    29    1
    11    14    13    1
    12    14    15    1
    13    16    15    2
    14    23    24    2
    15    23    22    1
    16    13     3   am
    17    15    21   am
    18    29    35   am
    19    29    30    2
    20    35    36    1
    21    21    22    1
    22     1     2    1
    23    41    39    1
    24     5     2    1
    25     5     6    1
    26    50    48    1
    27    22    25    1
    28     3     2    1
    29     3     4    2
    30     8     6   ar
    31     8    10   ar
    32    38    37    2
    33     6     7   ar
    34    49    48    1
    35    36    39    1
    36    36    37    1
    37    48    47    1
    38    39    40    1
    39    25    26    1
    40    10    11   ar
    41    37    43   am
    42     7     9   ar
    43    43    44    1
    44    40    42    1
    45    47    44    1
    46    11     9   ar
    47    11    12    1
    48    44    45    1
    49    56    55    1
    50    45    46    2
    51    72    70    1
    52    57    55    1
    53    71    70    1
    54    55    52    1
    55    70    67    1
    56    54    53    2
    57    52    53    1
    58    52    51    1
    59    53    58   am
    60    67    66    1
    61    67    68    1
    62    66    60   am
    63    69    68    2
    64    68    73   am
    65    58    59    1
    66    60    59    1
    67    60    61    2
    68    59    62    1
    69    73    74    1
    70    64    63    2
    71    74    77    1
    72    74    75    1
    73    62    63    1
    74    63    65   am
    75    77    78    1
    76    75    76    2
    77    75    79   am
    78    90    88   ar
    79    90    92   ar
    80    87    88   ar
    81    87    85   ar
    82    79    80    1
    83    88    86   ar
    84    92    91   ar
    85    85    84   ar
    86    86    84   ar
    87    86    89   ar
    88    91    89   ar
    89    80    83    1
    90    80    81    1
    91    84    83    1
    92    81    82    2
