@<TRIPOS>MOLECULE
tmp/1s5lC04.pdb
 123 125 0 0 0
SMALL
GASTEIGER

@<TRIPOS>ATOM
      1  N         52.3060   43.3130   63.9150 N.3   182  PRO182     -0.2102
      2  CA        51.2900   44.2890   64.2950 C.3   182  PRO182      0.1504
      3  C         49.9280   43.6100   64.4400 C.2   182  PRO182      0.2576
      4  O         48.8990   44.2560   64.3280 O.2   182  PRO182     -0.2718
      5  CB        51.3150   45.2550   63.1240 C.3   182  PRO182      0.0282
      6  CG        51.4970   44.3450   62.0020 C.3   182  PRO182      0.0208
      7  CD        52.6250   43.4570   62.4900 C.3   182  PRO182      0.0893
      8  N         49.9260   42.3110   64.7040 N.am  183  PHE183     -0.1963
      9  CA        48.6770   41.5740   64.8370 C.3   183  PHE183      0.1771
     10  C         48.3420   41.0330   66.2080 C.2   183  PHE183      0.2620
     11  O         49.1290   41.1180   67.1340 O.2   183  PHE183     -0.2715
     12  CB        48.6690   40.4150   63.8620 C.3   183  PHE183      0.0574
     13  CG        48.6140   40.8350   62.4400 C.ar  183  PHE183     -0.0200
     14  CD1       49.5830   40.4260   61.5510 C.ar  183  PHE183     -0.0042
     15  CD2       47.5720   41.6090   61.9810 C.ar  183  PHE183     -0.0042
     16  CE1       49.5050   40.7810   60.2270 C.ar  183  PHE183     -0.0003
     17  CE2       47.4890   41.9620   60.6710 C.ar  183  PHE183     -0.0003
     18  CZ        48.4510   41.5510   59.7890 C.ar  183  PHE183     -0.0000
     19  N         47.1570   40.4490   66.3070 N.am  184  GLY184     -0.1940
     20  CA        46.6940   39.8630   67.5490 C.3   184  GLY184      0.2014
     21  C         47.3680   40.3100   68.8330 C.2   184  GLY184      0.2639
     22  O         48.3200   39.6580   69.2990 O.2   184  GLY184     -0.2714
     23  N         46.8560   41.4180   69.3890 N.am  185  GLY185     -0.1939
     24  CA        47.3520   41.9880   70.6320 C.3   185  GLY185      0.2014
     25  C         48.6680   42.7220   70.5080 C.2   185  GLY185      0.2639
     26  O         48.8450   43.7540   71.1630 O.2   185  GLY185     -0.2714
     27  N         49.5800   42.1730   69.6900 N.am  186  GLU186     -0.1963
     28  CA        50.9170   42.7440   69.4290 C.3   186  GLU186      0.1733
     29  C         50.9650   43.7950   68.2960 C.2   186  GLU186      0.2617
     30  O         51.0850   43.4530   67.1230 O.2   186  GLU186     -0.2715
     31  CB        51.9160   41.6460   69.0660 C.3   186  GLU186      0.0429
     32  CG        52.1520   40.6020   70.1090 C.3   186  GLU186      0.1163
     33  CD        52.4890   39.2800   69.4670 C.2   186  GLU186      0.3649
     34  OE1       53.3940   39.2430   68.5900 O.co2 186  GLU186     -0.2457
     35  OE2       51.8300   38.2820   69.8340 O.co2 186  GLU186     -0.2457
     36  N         50.8690   45.0710   68.6470 N.am  187  GLY187     -0.1940
     37  CA        50.9390   46.1220   67.6510 C.3   187  GLY187      0.2014
     38  C         52.2860   46.6890   67.9720 C.2   187  GLY187      0.2639
     39  O         52.5720   46.9040   69.1410 O.2   187  GLY187     -0.2714
     40  N         53.1240   46.9410   66.9850 N.am  188  TRP188     -0.1959
     41  CA        54.4190   47.4100   67.3720 C.3   188  TRP188      0.1771
     42  C         54.3580   48.4700   68.4570 C.2   188  TRP188      0.2620
     43  O         54.5410   48.1420   69.6230 O.2   188  TRP188     -0.2715
     44  CB        55.2730   47.8180   66.1560 C.3   188  TRP188      0.0590
     45  CG        54.8450   48.9390   65.2760 C.ar  188  TRP188      0.0006
     46  CD1       54.7950   50.2720   65.5880 C.ar  188  TRP188      0.0946
     47  CD2       54.5140   48.8390   63.8860 C.ar  188  TRP188      0.0152
     48  NE1       54.4560   51.0150   64.4790 N.ar  188  TRP188     -0.2442
     49  CE2       54.2770   50.1600   63.4190 C.ar  188  TRP188      0.0810
     50  CE3       54.3940   47.7600   62.9850 C.ar  188  TRP188      0.0012
     51  CZ2       53.9230   50.4340   62.0900 C.ar  188  TRP188      0.0191
     52  CZ3       54.0410   48.0280   61.6560 C.ar  188  TRP188      0.0001
     53  CH2       53.8090   49.3600   61.2240 C.ar  188  TRP188      0.0015
     54  N         54.0470   49.7110   68.1310 N.am  189  ILE189     -0.1963
     55  CA        54.0170   50.7310   69.1770 C.3   189  ILE189      0.1727
     56  C         53.0900   50.4700   70.3850 C.2   189  ILE189      0.2616
     57  O         53.4170   50.8540   71.5110 O.2   189  ILE189     -0.2715
     58  CB        53.6310   52.1030   68.6050 C.3   189  ILE189      0.0290
     59  CG1       54.5120   52.4550   67.4180 C.3   189  ILE189      0.0022
     60  CG2       53.7910   53.1720   69.6930 C.3   189  ILE189      0.0023
     61  CD1       53.9980   53.6120   66.6330 C.3   189  ILE189      0.0001
     62  N         51.9460   49.8270   70.1610 N.am  190  VAL190     -0.1977
     63  CA        50.9830   49.5990   71.2490 C.3   190  VAL190      0.1596
     64  C         51.3920   48.5710   72.2930 C.2   190  VAL190      0.2287
     65  O         50.9990   48.6490   73.4510 O.2   190  VAL190     -0.2864
     66  CB        49.5680   49.1770   70.7020 C.3   190  VAL190      0.0276
     67  CG1       48.5830   49.0000   71.8500 C.3   190  VAL190      0.0022
     68  CG2       49.0190   50.2120   69.7720 C.3   190  VAL190      0.0022
     69  N         48.6670   58.0740   58.3920 N.3   246  MET246     -0.1245
     70  CA        49.1210   56.8240   58.9530 C.3   246  MET246      0.1570
     71  C         48.9630   56.9120   60.4560 C.2   246  MET246      0.2261
     72  O         48.3270   56.0790   61.0940 O.2   246  MET246     -0.2867
     73  CB        50.5770   56.6620   58.5860 C.3   246  MET246      0.0387
     74  CG        51.1380   55.3290   58.9070 C.3   246  MET246      0.0595
     75  SD        52.7510   55.1930   58.1610 S.3   246  MET246     -0.1393
     76  CE        53.7740   55.5530   59.5410 C.3   246  MET246      0.0692
     77  N         45.6520   56.8530   62.0980 N.3   249  PHE249     -0.1227
     78  CA        45.3520   55.4410   62.2720 C.3   249  PHE249      0.1736
     79  C         46.1650   55.0200   63.4650 C.2   249  PHE249      0.2595
     80  O         45.6330   54.6400   64.4870 O.2   249  PHE249     -0.2718
     81  CB        45.7860   54.6240   61.0510 C.3   249  PHE249      0.0547
     82  CG        44.8160   54.6870   59.8970 C.ar  249  PHE249     -0.0202
     83  CD1       44.4820   55.9040   59.3160 C.ar  249  PHE249     -0.0042
     84  CD2       44.2490   53.5220   59.3840 C.ar  249  PHE249     -0.0042
     85  CE1       43.6060   55.9580   58.2530 C.ar  249  PHE249     -0.0003
     86  CE2       43.3710   53.5670   58.3190 C.ar  249  PHE249     -0.0003
     87  CZ        43.0480   54.7860   57.7530 C.ar  249  PHE249     -0.0000
     88  N         47.4700   55.1050   63.3320 N.am  250  ILE250     -0.1980
     89  CA        48.3190   54.7580   64.4240 C.3   250  ILE250      0.1595
     90  C         47.6540   55.0210   65.7560 C.2   250  ILE250      0.2287
     91  O         47.1490   54.1070   66.3850 O.2   250  ILE250     -0.2864
     92  CB        49.5940   55.5450   64.3520 C.3   250  ILE250      0.0276
     93  CG1       50.2850   55.2610   63.0010 C.3   250  ILE250      0.0022
     94  CG2       50.4040   55.2610   65.5790 C.3   250  ILE250      0.0022
     95  CD1       51.8080   55.1260   63.0310 C.3   250  ILE250      0.0001
     96  N         44.0120   53.3450   66.7110 N.3   253  CYS253     -0.1221
     97  CA        44.1360   51.9780   67.1830 C.3   253  CYS253      0.1808
     98  C         44.8830   51.9950   68.5150 C.2   253  CYS253      0.2601
     99  O         44.5910   51.2230   69.4210 O.2   253  CYS253     -0.2717
    100  CB        44.8270   51.1270   66.0920 C.3   253  CYS253      0.0970
    101  SG        43.8760   51.0950   64.4830 S.3   253  CYS253     -0.0800
    102  N         45.8130   52.9320   68.6330 N.am  254  PHE254     -0.1976
    103  CA        46.6160   53.1240   69.8330 C.3   254  PHE254      0.1639
    104  C         45.7050   53.4860   71.0100 C.2   254  PHE254      0.2290
    105  O         45.9590   53.1210   72.1580 O.2   254  PHE254     -0.2864
    106  CB        47.5790   54.2640   69.5470 C.3   254  PHE254      0.0560
    107  CG        48.7270   54.3220   70.4600 C.ar  254  PHE254     -0.0200
    108  CD1       49.9820   54.6330   69.9750 C.ar  254  PHE254     -0.0042
    109  CD2       48.5720   54.0740   71.8080 C.ar  254  PHE254     -0.0042
    110  CE1       51.0850   54.6940   70.8210 C.ar  254  PHE254     -0.0003
    111  CE2       49.6640   54.1340   72.6650 C.ar  254  PHE254     -0.0003
    112  CZ        50.9300   54.4430   72.1680 C.ar  254  PHE254     -0.0000
    113  N         43.2480   50.2480   72.3040 N.3   257  PHE257     -0.1241
    114  CA        43.9930   49.2700   73.1190 C.3   257  PHE257      0.1605
    115  C         45.0590   49.9730   73.9620 C.2   257  PHE257      0.2264
    116  O         46.1720   50.2190   73.4980 O.2   257  PHE257     -0.2867
    117  CB        44.6770   48.2240   72.2320 C.3   257  PHE257      0.0534
    118  CG        43.8440   47.7590   71.0850 C.ar  257  PHE257     -0.0203
    119  CD1       43.9350   46.4680   70.6360 C.ar  257  PHE257     -0.0042
    120  CD2       42.9960   48.6150   70.4310 C.ar  257  PHE257     -0.0042
    121  CE1       43.1830   46.0550   69.5500 C.ar  257  PHE257     -0.0003
    122  CE2       42.2510   48.2040   69.3540 C.ar  257  PHE257     -0.0003
    123  CZ        42.3420   46.9290   68.9120 C.ar  257  PHE257     -0.0000
@<TRIPOS>BOND
     1    87    85   ar
     2    87    86   ar
     3    75    74    1
     4    75    76    1
     5    85    83   ar
     6    86    84   ar
     7    69    70    1
     8    73    74    1
     9    73    70    1
    10    70    71    1
    11    83    82   ar
    12    84    82   ar
    13    18    16   ar
    14    18    17   ar
    15    82    81    1
    16    16    14   ar
    17    71    72    2
    18    17    15   ar
    19    81    78    1
    20    53    52   ar
    21    53    51   ar
    22    14    13   ar
    23    52    50   ar
    24    15    13   ar
    25     6     7    1
    26     6     5    1
    27    51    49   ar
    28    77    78    1
    29    78    79    1
    30    13    12    1
    31     7     1    1
    32    50    47   ar
    33    93    95    1
    34    93    92    1
    35     5     2    1
    36    88    79   am
    37    88    89    1
    38    49    47   ar
    39    49    48   ar
    40    79    80    2
    41    12     9    1
    42    47    45   ar
    43     1     2    1
    44     2     3    1
    45     4     3    2
    46    92    89    1
    47    92    94    1
    48    89    90    1
    49     3     8   am
    50    48    46   ar
    51   101   100    1
    52     8     9    1
    53     9    10    1
    54    45    46   ar
    55    45    44    1
    56    90    91    2
    57   100    97    1
    58    44    41    1
    59    10    19   am
    60    10    11    2
    61    19    20    1
    62    61    59    1
    63    96    97    1
    64    40    41    1
    65    40    38   am
    66    30    29    2
    67    97    98    1
    68    41    42    1
    69    59    58    1
    70    20    21    1
    71    37    38    1
    72    37    36    1
    73    38    39    2
    74    54    42   am
    75    54    55    1
    76    29    36   am
    77    29    28    1
    78    42    43    2
    79    98   102   am
    80    98    99    2
    81    34    33   ar
    82    58    55    1
    83    58    60    1
    84   102   103    1
    85    21    22    2
    86    21    23   am
    87   123   122   ar
    88   123   121   ar
    89    31    28    1
    90    31    32    1
    91    55    56    1
    92   122   120   ar
    93    23    24    1
    94    28    27    1
    95    33    35   ar
    96    33    32    1
    97   106   103    1
    98   106   107    1
    99   121   119   ar
   100    27    25   am
   101    68    66    1
   102   103   104    1
   103   108   107   ar
   104   108   110   ar
   105    62    56   am
   106    62    63    1
   107    56    57    2
   108   120   118   ar
   109   107   109   ar
   110    25    24    1
   111    25    26    2
   112   119   118   ar
   113    66    63    1
   114    66    67    1
   115   110   112   ar
   116   104   105    2
   117   118   117    1
   118    63    64    1
   119   109   111   ar
   120   112   111   ar
   121   117   114    1
   122    64    65    2
   123   113   114    1
   124   114   115    1
   125   116   115    2
