@<TRIPOS>MOLECULE
tmp/1s5lD00.pdb
 178 173 0 0 0
SMALL
GASTEIGER

@<TRIPOS>ATOM
      1  N         24.8010   50.3090   40.4990 N.3   193  GLY193     -0.1225
      2  CA        25.4500   50.4550   39.2180 C.3   193  GLY193      0.1811
      3  C         25.2910   51.8840   38.7320 C.2   193  GLY193      0.2280
      4  O         26.1080   52.3780   37.9660 O.2   193  GLY193     -0.2866
      5  N         27.9540   53.6780   40.3670 N.3   196  LEU196     -0.1231
      6  CA        29.2880   53.3040   39.8920 C.3   196  LEU196      0.1693
      7  C         29.5360   54.0530   38.6020 C.2   196  LEU196      0.2591
      8  O         30.6370   54.5310   38.3590 O.2   196  LEU196     -0.2718
      9  CB        29.4100   51.8030   39.6160 C.3   196  LEU196      0.0284
     10  CG        30.7810   51.3650   39.0950 C.3   196  LEU196      0.0019
     11  CD1       31.5490   50.6770   40.1970 C.3   196  LEU196      0.0001
     12  CD2       30.6060   50.4110   37.9380 C.3   196  LEU196      0.0001
     13  N         28.5050   54.1570   37.7720 N.am  197  LEU197     -0.1980
     14  CA        28.6440   54.8720   36.5180 C.3   197  LEU197      0.1596
     15  C         28.9070   56.3270   36.8430 C.2   197  LEU197      0.2287
     16  O         29.9330   56.8750   36.4600 O.2   197  LEU197     -0.2864
     17  CB        27.3820   54.7280   35.6650 C.3   197  LEU197      0.0297
     18  CG        27.1120   53.3620   35.0350 C.3   197  LEU197      0.0022
     19  CD1       25.8570   53.4250   34.1860 C.3   197  LEU197      0.0001
     20  CD2       28.2950   52.9540   34.1840 C.3   197  LEU197      0.0001
     21  N         32.6890   56.8650   37.6820 N.3   200  ILE200     -0.1231
     22  CA        33.6240   56.6850   36.5910 C.3   200  ILE200      0.1692
     23  C         33.3980   57.7040   35.4610 C.2   200  ILE200      0.2592
     24  O         34.3440   58.3100   34.9730 O.2   200  ILE200     -0.2718
     25  CB        33.5580   55.2460   36.0580 C.3   200  ILE200      0.0266
     26  CG1       34.0000   54.2760   37.1480 C.3   200  ILE200      0.0019
     27  CG2       34.4820   55.0720   34.8770 C.3   200  ILE200      0.0020
     28  CD1       33.7890   52.8380   36.7750 C.3   200  ILE200      0.0001
     29  N         32.1560   57.9170   35.0500 N.am  201  HIS201     -0.1976
     30  CA        31.9050   58.8730   33.9810 C.3   201  HIS201      0.1656
     31  C         32.3830   60.2560   34.4300 C.2   201  HIS201      0.2291
     32  O         33.2620   60.8470   33.8110 O.2   201  HIS201     -0.2864
     33  CB        30.4120   58.8910   33.6480 C.3   201  HIS201      0.0771
     34  CG        30.0690   59.6630   32.4150 C.ar  201  HIS201      0.0820
     35  ND1       30.4960   59.2900   31.1570 N.ar  201  HIS201     -0.2267
     36  CD2       29.3140   60.7740   32.2450 C.ar  201  HIS201      0.1154
     37  CE1       30.0150   60.1390   30.2630 C.ar  201  HIS201      0.1986
     38  NE2       29.3000   61.0430   30.9020 N.ar  201  HIS201     -0.2212
     39  N         36.2240   60.3400   34.9450 N.3   204  THR204     -0.1203
     40  CA        36.9650   60.2050   33.6970 C.3   204  THR204      0.1994
     41  C         36.9560   61.5520   32.9990 C.2   204  THR204      0.2617
     42  O         38.0140   62.1100   32.7310 O.2   204  THR204     -0.2717
     43  CB        36.3480   59.1440   32.7870 C.3   204  THR204      0.1784
     44  OG1       36.8540   57.8550   33.1610 O.3   204  THR204     -0.2211
     45  CG2       36.7000   59.4140   31.3440 C.3   204  THR204      0.0376
     46  N         35.7670   62.0770   32.7150 N.am  205  VAL205     -0.1979
     47  CA        35.6520   63.3830   32.0770 C.3   205  VAL205      0.1595
     48  C         36.6280   64.3110   32.7670 C.2   205  VAL205      0.2287
     49  O         37.7780   64.4650   32.3530 O.2   205  VAL205     -0.2864
     50  CB        34.2310   63.9960   32.2350 C.3   205  VAL205      0.0276
     51  CG1       34.2220   65.4390   31.7400 C.3   205  VAL205      0.0022
     52  CG2       33.2380   63.1900   31.4290 C.3   205  VAL205      0.0022
     53  N         37.1390   67.1530   26.4430 N.3   231  TYR231     -0.1241
     54  CA        37.9450   65.9610   26.7190 C.3   231  TYR231      0.1605
     55  C         38.0210   64.8080   25.7320 C.2   231  TYR231      0.2264
     56  O         37.1690   64.6470   24.8460 O.2   231  TYR231     -0.2867
     57  CB        37.6280   65.4110   28.0910 C.3   231  TYR231      0.0534
     58  CG        36.3910   64.5820   28.1130 C.ar  231  TYR231     -0.0201
     59  CD1       36.4640   63.1950   28.0390 C.ar  231  TYR231     -0.0009
     60  CD2       35.1340   65.1820   28.2130 C.ar  231  TYR231     -0.0009
     61  CE1       35.3080   62.4220   28.0710 C.ar  231  TYR231      0.0417
     62  CE2       33.9720   64.4180   28.2450 C.ar  231  TYR231      0.0417
     63  CZ        34.0650   63.0470   28.1770 C.ar  231  TYR231      0.1957
     64  OH        32.9150   62.3060   28.2390 O.3   231  TYR231     -0.2866
     65  N         38.2010   60.9160   24.2910 N.3   233  MET233     -0.1245
     66  CA        37.6480   59.5840   24.3330 C.3   233  MET233      0.1570
     67  C         38.7840   58.6290   24.0110 C.2   233  MET233      0.2261
     68  O         38.8430   57.5310   24.5390 O.2   233  MET233     -0.2867
     69  CB        36.5610   59.4270   23.2660 C.3   233  MET233      0.0387
     70  CG        35.2610   60.1440   23.5440 C.3   233  MET233      0.0595
     71  SD        34.3310   59.2190   24.7650 S.3   233  MET233     -0.1393
     72  CE        33.6220   57.8930   23.7550 C.3   233  MET233      0.0692
     73  N         40.7930   58.0890   27.2590 N.3   236  ALA236     -0.1231
     74  CA        39.9930   57.3800   28.2390 C.3   236  ALA236      0.1694
     75  C         40.0580   55.9030   27.8380 C.2   236  ALA236      0.2592
     76  O         40.5090   55.0500   28.6060 O.2   236  ALA236     -0.2718
     77  CB        38.5790   57.8700   28.1880 C.3   236  ALA236      0.0304
     78  N         39.6150   55.6290   26.6160 N.am  237  ASN237     -0.1974
     79  CA        39.6070   54.3040   26.0150 C.3   237  ASN237      0.1688
     80  C         40.8110   53.4980   26.4590 C.2   237  ASN237      0.2292
     81  O         40.6890   52.5180   27.1940 O.2   237  ASN237     -0.2864
     82  CB        39.6520   54.4710   24.5000 C.3   237  ASN237      0.1181
     83  CG        39.4450   53.1910   23.7700 C.2   237  ASN237      0.2629
     84  OD1       39.3390   52.1320   24.3730 O.2   237  ASN237     -0.2716
     85  ND2       39.3860   53.2730   22.4560 N.am  237  ASN237     -0.0877
     86  N         41.1770   52.9640   30.3050 N.3   240  TRP240     -0.1241
     87  CA        40.3440   51.8700   30.7470 C.3   240  TRP240      0.1605
     88  C         40.8240   50.5330   30.2070 C.2   240  TRP240      0.2264
     89  O         41.1340   49.6150   30.9730 O.2   240  TRP240     -0.2867
     90  CB        38.9110   52.1510   30.3150 C.3   240  TRP240      0.0550
     91  CG        38.3580   53.2950   31.0690 C.ar  240  TRP240      0.0003
     92  CD1       37.4450   54.1840   30.6290 C.ar  240  TRP240      0.0946
     93  CD2       38.6730   53.6740   32.4190 C.ar  240  TRP240      0.0152
     94  NE1       37.1610   55.1030   31.6120 N.ar  240  TRP240     -0.2442
     95  CE2       37.9060   54.8090   32.7220 C.ar  240  TRP240      0.0810
     96  CE3       39.5290   53.1590   33.4030 C.ar  240  TRP240      0.0012
     97  CZ2       37.9660   55.4410   33.9680 C.ar  240  TRP240      0.0191
     98  CZ3       39.5870   53.7840   34.6330 C.ar  240  TRP240      0.0001
     99  CH2       38.8110   54.9110   34.9060 C.ar  240  TRP240      0.0015
    100  N         43.5770   49.3880   32.0810 N.3   243  ILE243     -0.1231
    101  CA        43.3960   49.2310   33.5150 C.3   243  ILE243      0.1692
    102  C         42.3060   48.2200   33.8140 C.2   243  ILE243      0.2592
    103  O         42.5320   47.2650   34.5440 O.2   243  ILE243     -0.2718
    104  CB        43.0020   50.5250   34.2070 C.3   243  ILE243      0.0266
    105  CG1       44.0920   51.5820   34.0500 C.3   243  ILE243      0.0019
    106  CG2       42.8070   50.2530   35.6800 C.3   243  ILE243      0.0020
    107  CD1       43.7670   52.8950   34.7770 C.3   243  ILE243      0.0001
    108  N         41.1270   48.4250   33.2400 N.am  244  PHE244     -0.1962
    109  CA        39.9990   47.5220   33.4730 C.3   244  PHE244      0.1771
    110  C         39.9030   46.4260   32.4190 C.2   244  PHE244      0.2620
    111  O         39.4220   45.3350   32.7030 O.2   244  PHE244     -0.2715
    112  CB        38.6940   48.3270   33.5070 C.3   244  PHE244      0.0574
    113  CG        37.4990   47.5840   34.0760 C.ar  244  PHE244     -0.0200
    114  CD1       37.4470   47.2430   35.4160 C.ar  244  PHE244     -0.0042
    115  CD2       36.3780   47.3300   33.2810 C.ar  244  PHE244     -0.0042
    116  CE1       36.2900   46.6730   35.9540 C.ar  244  PHE244     -0.0003
    117  CE2       35.2220   46.7620   33.8110 C.ar  244  PHE244     -0.0003
    118  CZ        35.1770   46.4390   35.1440 C.ar  244  PHE244     -0.0000
    119  N         40.3450   46.7210   31.2030 N.am  245  GLY245     -0.1940
    120  CA        40.2990   45.7210   30.1550 C.3   245  GLY245      0.2014
    121  C         39.2410   45.9410   29.0960 C.2   245  GLY245      0.2639
    122  O         39.3550   45.4240   27.9870 O.2   245  GLY245     -0.2714
    123  N         38.2080   46.7030   29.4270 N.am  246  ILE246     -0.1963
    124  CA        37.1430   46.9690   28.4710 C.3   246  ILE246      0.1727
    125  C         36.7900   48.4510   28.4300 C.2   246  ILE246      0.2616
    126  O         37.0410   49.1820   29.3810 O.2   246  ILE246     -0.2715
    127  CB        35.8800   46.1140   28.8090 C.3   246  ILE246      0.0290
    128  CG1       34.7670   46.3840   27.7860 C.3   246  ILE246      0.0022
    129  CG2       35.4120   46.3960   30.2230 C.3   246  ILE246      0.0023
    130  CD1       33.6520   45.3100   27.7330 C.3   246  ILE246      0.0001
    131  N         36.2250   48.8960   27.3130 N.am  247  ALA247     -0.1963
    132  CA        35.8420   50.2910   27.1680 C.3   247  ALA247      0.1728
    133  C         35.1750   50.5960   25.8180 C.2   247  ALA247      0.2616
    134  O         35.8710   50.9700   24.8670 O.2   247  ALA247     -0.2715
    135  CB        37.0740   51.1580   27.3460 C.3   247  ALA247      0.0334
    136  N         33.8450   50.4300   25.7220 N.am  248  PHE248     -0.1960
    137  CA        33.1190   50.7290   24.4690 C.3   248  PHE248      0.1771
    138  C         33.1750   52.2400   24.3950 C.2   248  PHE248      0.2620
    139  O         32.6200   52.9450   25.2480 O.2   248  PHE248     -0.2715
    140  CB        31.6490   50.2790   24.5120 C.3   248  PHE248      0.0574
    141  CG        30.9850   50.1650   23.1420 C.ar  248  PHE248     -0.0200
    142  CD1       29.6080   49.9700   23.0440 C.ar  248  PHE248     -0.0042
    143  CD2       31.7280   50.1690   21.9630 C.ar  248  PHE248     -0.0042
    144  CE1       28.9660   49.7710   21.7970 C.ar  248  PHE248     -0.0003
    145  CE2       31.1000   49.9680   20.7080 C.ar  248  PHE248     -0.0003
    146  CZ        29.7130   49.7680   20.6330 C.ar  248  PHE248     -0.0000
    147  N         33.8640   52.7320   23.3780 N.am  249  SER249     -0.1950
    148  CA        34.0280   54.1540   23.2190 C.3   249  SER249      0.1924
    149  C         33.1260   54.6800   22.1230 C.2   249  SER249      0.2314
    150  O         33.5110   54.6380   20.9600 O.2   249  SER249     -0.2863
    151  CB        35.4850   54.4380   22.8830 C.3   249  SER249      0.2116
    152  OG        36.2130   53.2240   22.8180 O.3   249  SER249     -0.2180
    153  N         27.4070   55.1450   25.8700 N.3   254  LEU254     -0.1245
    154  CA        27.7270   55.3930   27.2650 C.3   254  LEU254      0.1561
    155  C         26.5670   56.0230   28.0100 C.2   254  LEU254      0.2260
    156  O         26.1840   55.5520   29.0730 O.2   254  LEU254     -0.2867
    157  CB        28.9360   56.2990   27.3840 C.3   254  LEU254      0.0270
    158  CG        29.9340   55.8160   28.4230 C.3   254  LEU254      0.0019
    159  CD1       30.5820   54.4850   27.9380 C.3   254  LEU254      0.0001
    160  CD2       30.9640   56.9070   28.6590 C.3   254  LEU254      0.0001
    161  N         23.2710   53.6140   28.0390 N.3   257  PHE257     -0.1241
    162  CA        23.5350   52.5370   28.9890 C.3   257  PHE257      0.1605
    163  C         23.3080   53.0780   30.3930 C.2   257  PHE257      0.2264
    164  O         22.9800   52.3200   31.3020 O.2   257  PHE257     -0.2867
    165  CB        24.9920   52.0620   28.8840 C.3   257  PHE257      0.0534
    166  CG        25.2980   50.7930   29.6720 C.ar  257  PHE257     -0.0203
    167  CD1       24.8410   49.5440   29.2390 C.ar  257  PHE257     -0.0042
    168  CD2       26.0530   50.8450   30.8370 C.ar  257  PHE257     -0.0042
    169  CE1       25.1340   48.3870   29.9520 C.ar  257  PHE257     -0.0003
    170  CE2       26.3440   49.6840   31.5510 C.ar  257  PHE257     -0.0003
    171  CZ        25.8830   48.4630   31.1040 C.ar  257  PHE257     -0.0000
    172  N         20.7660   50.8760   33.1090 N.3   261  VAL261     -0.1245
    173  CA        21.0860   50.3840   34.4490 C.3   261  VAL261      0.1561
    174  C         20.1260   50.8230   35.5710 C.2   261  VAL261      0.2260
    175  O         19.4090   49.9820   36.1290 O.2   261  VAL261     -0.2867
    176  CB        22.5220   50.7340   34.8330 C.3   261  VAL261      0.0252
    177  CG1       22.7760   50.3270   36.2440 C.3   261  VAL261      0.0019
    178  CG2       23.4780   50.0150   33.9250 C.3   261  VAL261      0.0019
@<TRIPOS>BOND
     1   146   145   ar
     2   146   144   ar
     3   145   143   ar
     4   150   149    2
     5   144   142   ar
     6   143   141   ar
     7   149   148    1
     8    85    83   am
     9   152   151    1
    10   151   148    1
    11   142   141   ar
    12   141   140    1
    13   148   147    1
    14    69    70    1
    15    69    66    1
    16   147   138   am
    17    70    71    1
    18    72    71    1
    19    83    84    2
    20    83    82    1
    21    67    66    1
    22    67    68    2
    23    65    66    1
    24   138   137    1
    25   138   139    2
    26   137   140    1
    27   137   136    1
    28    82    79    1
    29    56    55    2
    30   134   133    2
    31   136   133   am
    32    55    54    1
    33   133   132    1
    34   153   154    1
    35    79    80    1
    36    79    78    1
    37    53    54    1
    38    80    81    2
    39    78    75   am
    40    54    57    1
    41   132   131    1
    42   132   135    1
    43    73    74    1
    44   154   157    1
    45   154   155    1
    46   131   125   am
    47   157   158    1
    48   130   128    1
    49   128   127    1
    50    75    74    1
    51    75    76    2
    52   159   158    1
    53   122   121    2
    54   155   156    2
    55   161   162    1
    56    59    61   ar
    57    59    58   ar
    58    61    63   ar
    59    57    58    1
    60    58    60   ar
    61    63    64    1
    62    63    62   ar
    63    77    74    1
    64    60    62   ar
    65   158   160    1
    66   125   124    1
    67   125   126    2
    68   124   127    1
    69   124   123    1
    70   127   129    1
    71   165   162    1
    72   165   166    1
    73   162   163    1
    74   121   123   am
    75   121   120    1
    76   167   166   ar
    77   167   169   ar
    78   166   168   ar
    79   169   171   ar
    80   120   119    1
    81    88    87    1
    82    88    89    2
    83    37    38   ar
    84    37    35   ar
    85    86    87    1
    86    90    87    1
    87    90    91    1
    88   163   164    2
    89    92    91   ar
    90    92    94   ar
    91   168   170   ar
    92    38    36   ar
    93    91    93   ar
    94   171   170   ar
    95    35    34   ar
    96   119   110   am
    97    45    43    1
    98    52    50    1
    99    94    95   ar
   100    51    50    1
   101    47    50    1
   102    47    46    1
   103    47    48    1
   104   100   101    1
   105    36    34   ar
   106    49    48    2
   107    34    33    1
   108    93    95   ar
   109    93    96   ar
   110   110   111    2
   111   110   109    1
   112    46    41   am
   113    95    97   ar
   114    42    41    2
   115    43    44    1
   116    43    40    1
   117    41    40    1
   118   172   173    1
   119   108   109    1
   120   108   102   am
   121   115   117   ar
   122   115   113   ar
   123    96    98   ar
   124   109   112    1
   125   112   113    1
   126   101   102    1
   127   101   104    1
   128    33    30    1
   129    40    39    1
   130   117   118   ar
   131    32    31    2
   132   102   103    2
   133   178   176    1
   134    97    99   ar
   135    30    31    1
   136    30    29    1
   137   105   104    1
   138   105   107    1
   139   113   114   ar
   140    20    18    1
   141    19    18    1
   142   104   106    1
   143   173   176    1
   144   173   174    1
   145    98    99   ar
   146   176   177    1
   147    27    25    1
   148    24    23    2
   149    18    17    1
   150    29    23   am
   151   118   116   ar
   152   114   116   ar
   153    23    22    1
   154   174   175    2
   155    17    14    1
   156    25    22    1
   157    25    26    1
   158    16    15    2
   159    14    15    1
   160    14    13    1
   161    22    21    1
   162    28    26    1
   163    13     7   am
   164    12    10    1
   165     4     3    2
   166     8     7    2
   167     7     6    1
   168     3     2    1
   169    10     9    1
   170    10    11    1
   171     2     1    1
   172     9     6    1
   173     6     5    1
