@<TRIPOS>MOLECULE
tmp/1s5pA00.pdb
 229 228 0 0 0
SMALL
GASTEIGER

@<TRIPOS>ATOM
      1  N         79.3330    8.3880   34.6190 N.3    21  PHE21      -0.1241
      2  CA        80.3230    7.3980   35.0310 C.3    21  PHE21       0.1605
      3  C         81.4050    7.2210   33.9700 C.2    21  PHE21       0.2264
      4  O         81.4520    6.1960   33.2900 O.2    21  PHE21      -0.2867
      5  CB        79.6400    6.0630   35.3040 C.3    21  PHE21       0.0534
      6  CG        79.2560    5.2850   34.0690 C.ar   21  PHE21      -0.0203
      7  CD1       78.0020    5.4530   33.4620 C.ar   21  PHE21      -0.0042
      8  CD2       80.1330    4.3700   33.4930 C.ar   21  PHE21      -0.0042
      9  CE1       77.6370    4.7090   32.3170 C.ar   21  PHE21      -0.0003
     10  CE2       79.7880    3.6880   32.3700 C.ar   21  PHE21      -0.0003
     11  CZ        78.5700    3.8530   31.7580 C.ar   21  PHE21      -0.0000
     12  N         84.8110    6.5570   31.7910 N.3    23  ALA23      -0.1231
     13  CA        85.5500    5.3070   31.6490 C.3    23  ALA23       0.1694
     14  C         86.8340    5.5950   30.8850 C.2    23  ALA23       0.2591
     15  O         87.8580    4.9430   31.0910 O.2    23  ALA23      -0.2718
     16  CB        84.7130    4.2820   30.9060 C.3    23  ALA23       0.0304
     17  N         86.7640    6.5790   29.9940 N.am   24  ALA24      -0.1980
     18  CA        87.9220    6.9820   29.2130 C.3    24  ALA24       0.1597
     19  C         88.8910    7.6100   30.2030 C.2    24  ALA24       0.2287
     20  O         90.0970    7.6760   29.9680 O.2    24  ALA24      -0.2864
     21  CB        87.5130    7.9960   28.1510 C.3    24  ALA24       0.0319
     22  N         85.3460    7.0690   38.2900 N.3    28  TRP28      -0.1241
     23  CA        83.9220    7.2230   38.5550 C.3    28  TRP28       0.1605
     24  C         83.7950    7.7260   39.9940 C.2    28  TRP28       0.2264
     25  O         83.9360    6.9530   40.9450 O.2    28  TRP28      -0.2867
     26  CB        83.2150    5.8730   38.3910 C.3    28  TRP28       0.0550
     27  CG        81.7410    5.9180   38.6230 C.ar   28  TRP28       0.0003
     28  CD1       80.9490    7.0330   38.6800 C.ar   28  TRP28       0.0946
     29  CD2       80.8680    4.7960   38.8060 C.ar   28  TRP28       0.0152
     30  NE1       79.6410    6.6730   38.8870 N.ar   28  TRP28      -0.2442
     31  CE2       79.5580    5.3080   38.9680 C.ar   28  TRP28       0.0810
     32  CE3       81.0610    3.4100   38.8430 C.ar   28  TRP28       0.0012
     33  CZ2       78.4470    4.4810   39.1670 C.ar   28  TRP28       0.0191
     34  CZ3       79.9570    2.5820   39.0400 C.ar   28  TRP28       0.0001
     35  CH2       78.6620    3.1240   39.1990 C.ar   28  TRP28       0.0015
     36  N         83.7560   -1.2410   40.3140 N.3    37  ALA37      -0.1245
     37  CA        82.8380   -1.8260   39.3410 C.3    37  ALA37       0.1562
     38  C         83.3210   -3.1310   38.7000 C.2    37  ALA37       0.2260
     39  O         83.0980   -3.3630   37.5170 O.2    37  ALA37      -0.2867
     40  CB        82.5240   -0.8080   38.2600 C.3    37  ALA37       0.0290
     41  N         78.5580    2.5420   46.6280 N.3    53  TYR53      -0.1241
     42  CA        77.2180    2.5110   46.0720 C.3    53  TYR53       0.1605
     43  C         76.1850    3.0870   47.0380 C.2    53  TYR53       0.2264
     44  O         75.1610    3.6240   46.6100 O.2    53  TYR53      -0.2867
     45  CB        76.8410    1.0840   45.6580 C.3    53  TYR53       0.0534
     46  CG        77.5300    0.6580   44.3740 C.ar   53  TYR53      -0.0201
     47  CD1       78.7340   -0.0580   44.3960 C.ar   53  TYR53      -0.0009
     48  CD2       77.0370    1.0760   43.1350 C.ar   53  TYR53      -0.0009
     49  CE1       79.4360   -0.3370   43.2070 C.ar   53  TYR53       0.0417
     50  CE2       77.7260    0.8090   41.9500 C.ar   53  TYR53       0.0417
     51  CZ        78.9200    0.1040   41.9920 C.ar   53  TYR53       0.1957
     52  OH        79.6040   -0.1400   40.8260 O.3    53  TYR53      -0.2866
     53  N         71.4500    1.4850   29.8680 N.3    90  GLN90      -0.1245
     54  CA        72.6780    0.9950   30.4820 C.3    90  GLN90       0.1566
     55  C         72.7590    1.6590   31.8530 C.2    90  GLN90       0.2260
     56  O         73.6390    1.3540   32.6490 O.2    90  GLN90      -0.2867
     57  CB        73.9100    1.4210   29.6640 C.3    90  GLN90       0.0367
     58  CG        73.8800    1.0170   28.2010 C.3    90  GLN90       0.0905
     59  CD        75.0690    1.5760   27.4380 C.2    90  GLN90       0.2608
     60  OE1       74.9140    2.2790   26.4400 O.2    90  GLN90      -0.2717
     61  NE2       76.2600    1.2670   27.9100 N.am   90  GLN90      -0.0878
     62  N         71.8150    2.8450   35.7490 N.3    92  ILE92      -0.1245
     63  CA        71.3450    2.2120   36.9680 C.3    92  ILE92       0.1561
     64  C         70.4370    3.1380   37.7760 C.2    92  ILE92       0.2260
     65  O         69.9810    2.7700   38.8530 O.2    92  ILE92      -0.2867
     66  CB        72.5270    1.7630   37.8470 C.3    92  ILE92       0.0252
     67  CG1       73.3950    2.9760   38.2230 C.3    92  ILE92       0.0019
     68  CG2       73.3640    0.7440   37.0640 C.3    92  ILE92       0.0019
     69  CD1       74.5910    2.6460   39.1180 C.3    92  ILE92       0.0001
     70  N         72.2340   -3.1970   32.8500 N.3   108  HIS108     -0.1241
     71  CA        73.3490   -3.1480   33.7910 C.3   108  HIS108      0.1621
     72  C         72.8640   -3.0940   35.2430 C.2   108  HIS108      0.2264
     73  O         73.6160   -2.7320   36.1540 O.2   108  HIS108     -0.2867
     74  CB        74.2430   -1.9420   33.4950 C.3   108  HIS108      0.0745
     75  CG        74.9720   -2.0390   32.1910 C.ar  108  HIS108      0.0817
     76  ND1       75.5110   -0.9430   31.5560 N.ar  108  HIS108     -0.2268
     77  CD2       75.2840   -3.1120   31.4220 C.ar  108  HIS108      0.1154
     78  CE1       76.1280   -1.3340   30.4530 C.ar  108  HIS108      0.1986
     79  NE2       76.0060   -2.6450   30.3490 N.ar  108  HIS108     -0.2212
     80  N         73.9070   -4.3310   40.4960 N.3   141  VAL141     -0.1231
     81  CA        74.5110   -3.5690   39.4030 C.3   141  VAL141      0.1692
     82  C         75.4910   -4.4790   38.6630 C.2   141  VAL141      0.2592
     83  O         76.3450   -5.1090   39.2900 O.2   141  VAL141     -0.2718
     84  CB        75.2790   -2.3440   39.9590 C.3   141  VAL141      0.0266
     85  CG1       76.0620   -1.6530   38.8560 C.3   141  VAL141      0.0020
     86  CG2       74.2980   -1.3750   40.6040 C.3   141  VAL141      0.0020
     87  N         75.3610   -4.5570   37.3380 N.am  142  VAL142     -0.1966
     88  CA        76.2600   -5.3930   36.5500 C.3   142  VAL142      0.1727
     89  C         77.6380   -4.7580   36.4950 C.2   142  VAL142      0.2616
     90  O         77.8070   -3.6430   36.0000 O.2   142  VAL142     -0.2715
     91  CB        75.7410   -5.5850   35.1000 C.3   142  VAL142      0.0290
     92  CG1       76.7110   -6.4460   34.3020 C.3   142  VAL142      0.0023
     93  CG2       74.3620   -6.2410   35.1260 C.3   142  VAL142      0.0023
     94  N         78.6340   -5.4590   37.0160 N.am  143  TRP143     -0.1960
     95  CA        79.9810   -4.9170   36.9780 C.3   143  TRP143      0.1771
     96  C         80.6950   -5.4180   35.7350 C.2   143  TRP143      0.2620
     97  O         80.2400   -6.3580   35.0810 O.2   143  TRP143     -0.2715
     98  CB        80.7580   -5.3120   38.2390 C.3   143  TRP143      0.0590
     99  CG        80.2120   -4.6570   39.4790 C.ar  143  TRP143      0.0006
    100  CD1       79.7330   -3.3810   39.5870 C.ar  143  TRP143      0.0946
    101  CD2       80.0980   -5.2390   40.7800 C.ar  143  TRP143      0.0152
    102  NE1       79.3300   -3.1330   40.8770 N.ar  143  TRP143     -0.2442
    103  CE2       79.5410   -4.2560   41.6320 C.ar  143  TRP143      0.0810
    104  CE3       80.4140   -6.4950   41.3160 C.ar  143  TRP143      0.0012
    105  CZ2       79.2890   -4.4930   42.9890 C.ar  143  TRP143      0.0191
    106  CZ3       80.1640   -6.7290   42.6690 C.ar  143  TRP143      0.0001
    107  CH2       79.6070   -5.7300   43.4870 C.ar  143  TRP143      0.0015
    108  N         81.7980   -4.7660   35.3950 N.am  144  PHE144     -0.1960
    109  CA        82.5720   -5.1690   34.2330 C.3   144  PHE144      0.1771
    110  C         83.1020   -6.5690   34.4790 C.2   144  PHE144      0.2620
    111  O         83.7030   -6.8360   35.5160 O.2   144  PHE144     -0.2715
    112  CB        83.7290   -4.2000   33.9980 C.3   144  PHE144      0.0574
    113  CG        83.2900   -2.8610   33.5020 C.ar  144  PHE144     -0.0200
    114  CD1       82.8220   -1.8930   34.3830 C.ar  144  PHE144     -0.0042
    115  CD2       83.3250   -2.5710   32.1460 C.ar  144  PHE144     -0.0042
    116  CE1       82.3910   -0.6520   33.9100 C.ar  144  PHE144     -0.0003
    117  CE2       82.8970   -1.3360   31.6680 C.ar  144  PHE144     -0.0003
    118  CZ        82.4350   -0.3770   32.5500 C.ar  144  PHE144     -0.0000
    119  N         82.8510   -7.4620   33.5310 N.am  145  GLY145     -0.1940
    120  CA        83.3000   -8.8280   33.6780 C.3   145  GLY145      0.2014
    121  C         82.1190   -9.7100   34.0010 C.2   145  GLY145      0.2639
    122  O         82.2470  -10.9270   34.0370 O.2   145  GLY145     -0.2714
    123  N         80.9620   -9.0980   34.2480 N.am  146  GLU146     -0.1963
    124  CA        79.7640   -9.8690   34.5550 C.3   146  GLU146      0.1733
    125  C         78.8170   -9.7670   33.3670 C.2   146  GLU146      0.2616
    126  O         78.9620   -8.8740   32.5330 O.2   146  GLU146     -0.2715
    127  CB        79.0790   -9.3360   35.8190 C.3   146  GLU146      0.0429
    128  CG        80.0220   -9.0850   36.9940 C.3   146  GLU146      0.1163
    129  CD        79.2810   -8.7640   38.2860 C.2   146  GLU146      0.3649
    130  OE1       78.3720   -7.8990   38.2650 O.co2 146  GLU146     -0.2457
    131  OE2       79.6120   -9.3780   39.3260 O.co2 146  GLU146     -0.2457
    132  N         77.8370  -10.6650   33.3060 N.am  147  MET147     -0.1964
    133  CA        76.8740  -10.6980   32.2010 C.3   147  MET147      0.1722
    134  C         75.6700   -9.7440   32.3170 C.2   147  MET147      0.2458
    135  O         74.9610   -9.7350   33.3200 O.2   147  MET147     -0.2730
    136  CB        76.3700  -12.1310   32.0260 C.3   147  MET147      0.0427
    137  CG        77.4750  -13.1410   31.7100 C.3   147  MET147      0.0599
    138  SD        78.3690  -12.7520   30.1750 S.3   147  MET147     -0.1393
    139  CE        77.0770  -13.0440   28.9380 C.3   147  MET147      0.0692
    140  N         75.4180   -8.9350   31.2690 N.am  148  PRO148     -0.2727
    141  CA        74.2960   -7.9880   31.2670 C.3   148  PRO148      0.1402
    142  C         72.9550   -8.6980   31.4260 C.2   148  PRO148      0.2269
    143  O         72.8360   -9.8920   31.1380 O.2   148  PRO148     -0.2865
    144  CB        74.4140   -7.3120   29.9000 C.3   148  PRO148      0.0296
    145  CG        75.8680   -7.3560   29.6280 C.3   148  PRO148      0.0237
    146  CD        76.2390   -8.7630   30.0590 C.3   148  PRO148      0.0939
    147  N         69.4880   -9.6850   27.9850 N.3   151  MET151     -0.1230
    148  CA        70.0500   -9.7910   26.6440 C.3   151  MET151      0.1702
    149  C         69.1610  -10.5310   25.6430 C.2   151  MET151      0.2592
    150  O         69.1140  -10.1670   24.4690 O.2   151  MET151     -0.2718
    151  CB        71.4330  -10.4410   26.7020 C.3   151  MET151      0.0401
    152  CG        72.4640   -9.6060   27.4640 C.3   151  MET151      0.0596
    153  SD        72.4890   -7.8970   26.8540 S.3   151  MET151     -0.1393
    154  CE        73.3850   -8.1290   25.2950 C.3   151  MET151      0.0692
    155  N         68.4490  -11.5610   26.0950 N.am  152  ASP152     -0.1974
    156  CA        67.5830  -12.3040   25.1800 C.3   152  ASP152      0.1709
    157  C         66.4890  -11.4180   24.6100 C.2   152  ASP152      0.2293
    158  O         66.2700  -11.3910   23.3990 O.2   152  ASP152     -0.2864
    159  CB        66.9510  -13.5170   25.8730 C.3   152  ASP152      0.1436
    160  CG        67.9660  -14.5920   26.2010 C.2   152  ASP152      0.3671
    161  OD1       68.9200  -14.7650   25.4180 O.co2 152  ASP152     -0.2456
    162  OD2       67.8040  -15.2710   27.2350 O.co2 152  ASP152     -0.2456
    163  N         68.1310   -8.5870   22.2900 N.3   155  TYR155     -0.1241
    164  CA        68.4570   -9.0530   20.9470 C.3   155  TYR155      0.1605
    165  C         67.2270   -9.3400   20.0920 C.2   155  TYR155      0.2264
    166  O         67.2660   -9.1710   18.8710 O.2   155  TYR155     -0.2867
    167  CB        69.3820  -10.2750   21.0030 C.3   155  TYR155      0.0534
    168  CG        70.8130   -9.8670   21.2560 C.ar  155  TYR155     -0.0201
    169  CD1       71.4890  -10.2780   22.4020 C.ar  155  TYR155     -0.0009
    170  CD2       71.4740   -9.0100   20.3720 C.ar  155  TYR155     -0.0009
    171  CE1       72.7920   -9.8450   22.6650 C.ar  155  TYR155      0.0417
    172  CE2       72.7730   -8.5680   20.6270 C.ar  155  TYR155      0.0417
    173  CZ        73.4230   -8.9870   21.7730 C.ar  155  TYR155      0.1957
    174  OH        74.6940   -8.5420   22.0380 O.3   155  TYR155     -0.2866
    175  N         80.3950    4.8790   22.6400 N.3   171  GLY171     -0.1210
    176  CA        80.6830    3.6780   21.8790 C.3   171  GLY171      0.1956
    177  C         81.8390    2.9200   22.5090 C.2   171  GLY171      0.2612
    178  O         82.6960    2.3840   21.8070 O.2   171  GLY171     -0.2717
    179  N         81.8590    2.8660   23.8390 N.am  172  HIS172     -0.1961
    180  CA        82.9290    2.1900   24.5520 C.3   172  HIS172      0.1787
    181  C         82.5220    0.9820   25.3900 C.2   172  HIS172      0.2620
    182  O         83.3440    0.1040   25.6180 O.2   172  HIS172     -0.2715
    183  CB        83.6680    3.1890   25.4440 C.3   172  HIS172      0.0785
    184  CG        84.4950    4.1800   24.6860 C.ar  172  HIS172      0.0821
    185  ND1       83.9780    4.9610   23.6750 N.ar  172  HIS172     -0.2267
    186  CD2       85.8000    4.5210   24.7980 C.ar  172  HIS172      0.1154
    187  CE1       84.9300    5.7420   23.1960 C.ar  172  HIS172      0.1986
    188  NE2       86.0460    5.4950   23.8600 N.ar  172  HIS172     -0.2212
    189  N         81.2800    0.9250   25.8650 N.am  173  VAL173     -0.1963
    190  CA        80.8870   -0.2170   26.6800 C.3   173  VAL173      0.1727
    191  C         80.0950   -1.2660   25.8920 C.2   173  VAL173      0.2616
    192  O         78.9960   -1.0040   25.4080 O.2   173  VAL173     -0.2715
    193  CB        80.0680    0.2150   27.9240 C.3   173  VAL173      0.0290
    194  CG1       79.8630   -0.9840   28.8540 C.3   173  VAL173      0.0023
    195  CG2       80.7960    1.3210   28.6660 C.3   173  VAL173      0.0023
    196  N         80.6850   -2.4490   25.7520 N.am  174  TYR174     -0.1960
    197  CA        80.0420   -3.5460   25.0530 C.3   174  TYR174      0.1756
    198  C         79.4140   -4.4660   26.0880 C.2   174  TYR174      0.2461
    199  O         79.8110   -4.4620   27.2610 O.2   174  TYR174     -0.2730
    200  CB        81.0670   -4.3000   24.1810 C.3   174  TYR174      0.0574
    201  CG        81.5000   -3.5000   22.9640 C.ar  174  TYR174     -0.0198
    202  CD1       82.3710   -2.4120   23.0860 C.ar  174  TYR174     -0.0009
    203  CD2       80.9800   -3.7860   21.7020 C.ar  174  TYR174     -0.0009
    204  CE1       82.7050   -1.6250   21.9800 C.ar  174  TYR174      0.0417
    205  CE2       81.3080   -3.0070   20.5860 C.ar  174  TYR174      0.0417
    206  CZ        82.1690   -1.9290   20.7360 C.ar  174  TYR174      0.1957
    207  OH        82.4820   -1.1630   19.6400 O.3   174  TYR174     -0.2866
    208  N         78.4290   -5.2790   25.6770 N.am  175  PRO175     -0.2727
    209  CA        77.8640   -5.4150   24.3310 C.3   175  PRO175      0.1402
    210  C         76.9610   -4.2740   23.8570 C.2   175  PRO175      0.2269
    211  O         76.6770   -4.1650   22.6640 O.2   175  PRO175     -0.2865
    212  CB        77.1070   -6.7430   24.4180 C.3   175  PRO175      0.0296
    213  CG        76.6190   -6.7350   25.8210 C.3   175  PRO175      0.0237
    214  CD        77.8320   -6.2730   26.5900 C.3   175  PRO175      0.0939
    215  N         73.9240   -4.6780   15.2340 N.3   182  GLU182     -0.1245
    216  CA        72.9020   -5.7080   15.1480 C.3   182  GLU182      0.1567
    217  C         71.6480   -5.1650   14.4840 C.2   182  GLU182      0.2260
    218  O         71.1040   -5.7890   13.5700 O.2   182  GLU182     -0.2867
    219  CB        72.5340   -6.2340   16.5370 C.3   182  GLU182      0.0388
    220  CG        73.5220   -7.2230   17.1000 C.3   182  GLU182      0.1160
    221  CD        73.7690   -8.3780   16.1520 C.2   182  GLU182      0.3649
    222  OE1       72.7820   -9.0220   15.7320 O.co2 182  GLU182     -0.2457
    223  OE2       74.9480   -8.6350   15.8300 O.co2 182  GLU182     -0.2457
    224  N         81.7590   10.4920   18.6560 N.3   198  SER198     -0.1217
    225  CA        82.2730    9.1510   18.9400 C.3   198  SER198      0.1889
    226  C         81.2850    8.0670   19.3760 C.2   198  SER198      0.2288
    227  O         81.0910    7.8210   20.5690 O.2   198  SER198     -0.2866
    228  CB        83.4100    9.2410   19.9620 C.3   198  SER198      0.2089
    229  OG        84.1490    8.0310   20.0060 O.3   198  SER198     -0.2183
@<TRIPOS>BOND
     1   218   217    2
     2   217   216    1
     3   216   215    1
     4   216   219    1
     5   222   221   ar
     6   223   221   ar
     7   221   220    1
     8   219   220    1
     9   224   225    1
    10   166   165    2
    11   225   226    1
    12   225   228    1
    13   226   227    2
    14   207   206    1
    15   228   229    1
    16   165   164    1
    17   170   172   ar
    18   170   168   ar
    19   205   206   ar
    20   205   203   ar
    21   172   173   ar
    22   206   204   ar
    23   164   167    1
    24   164   163    1
    25   167   168    1
    26   168   169   ar
    27   203   201   ar
    28   173   174    1
    29   173   171   ar
    30   178   177    2
    31   176   177    1
    32   176   175    1
    33   204   202   ar
    34   169   171   ar
    35   177   179   am
    36   211   210    2
    37   201   202   ar
    38   201   200    1
    39   187   185   ar
    40   187   188   ar
    41   158   157    2
    42   185   184   ar
    43   179   180    1
    44   210   209    1
    45   188   186   ar
    46   200   197    1
    47   209   212    1
    48   209   208    1
    49   212   213    1
    50   150   149    2
    51   180   181    1
    52   180   183    1
    53   157   156    1
    54   184   186   ar
    55   184   183    1
    56   197   196    1
    57   197   198    1
    58   156   159    1
    59   156   155    1
    60   154   153    1
    61   181   182    2
    62   181   189   am
    63   192   191    2
    64   161   160   ar
    65   149   155   am
    66   149   148    1
    67   208   198   am
    68   208   214    1
    69   196   191   am
    70   213   214    1
    71   189   190    1
    72   159   160    1
    73   191   190    1
    74   198   199    2
    75   160   162   ar
    76    60    59    2
    77   148   151    1
    78   148   147    1
    79   190   193    1
    80   151   152    1
    81   153   152    1
    82    59    61   am
    83    59    58    1
    84   193   195    1
    85   193   194    1
    86    21    18    1
    87    58    57    1
    88   139   138    1
    89    18    17    1
    90    18    19    1
    91   145   144    1
    92   145   146    1
    93    57    54    1
    94    53    54    1
    95   144   141    1
    96    20    19    2
    97    17    14   am
    98   146   140    1
    99   138   137    1
   100    79    78   ar
   101    79    77   ar
   102    78    76   ar
   103    54    55    1
   104    14    15    2
   105    14    13    1
   106    16    13    1
   107   143   142    2
   108   141   140    1
   109   141   142    1
   110   140   134   am
   111    77    75   ar
   112    76    75   ar
   113    13    12    1
   114   117   115   ar
   115   117   118   ar
   116   137   136    1
   117    11     9   ar
   118    11    10   ar
   119    55    56    2
   120   136   133    1
   121   115   113   ar
   122    75    74    1
   123   133   134    1
   124   133   132    1
   125   134   135    2
   126     9     7   ar
   127    10     8   ar
   128   126   125    2
   129   118   116   ar
   130    70    71    1
   131     4     3    2
   132   132   125   am
   133   125   124    1
   134     7     6   ar
   135     8     6   ar
   136    74    71    1
   137   113   112    1
   138   113   114   ar
   139   119   120    1
   140   119   110   am
   141   120   121    1
   142    71    72    1
   143   116   114   ar
   144     3     2    1
   145   112   109    1
   146   121   122    2
   147   121   123   am
   148     6     5    1
   149   109   110    1
   150   109   108    1
   151   123   124    1
   152    92    91    1
   153   110   111    2
   154   124   127    1
   155     1     2    1
   156     2     5    1
   157    97    96    2
   158    91    93    1
   159    91    88    1
   160    72    73    2
   161   108    96   am
   162    96    95    1
   163    62    63    1
   164   127   128    1
   165    90    89    2
   166    89    88    1
   167    89    94   am
   168    88    87    1
   169    63    64    1
   170    63    66    1
   171    95    94    1
   172    95    98    1
   173   128   129    1
   174    68    66    1
   175    87    82   am
   176    39    38    2
   177    64    65    2
   178    66    67    1
   179    67    69    1
   180    98    99    1
   181    40    37    1
   182   130   129   ar
   183   129   131   ar
   184    22    23    1
   185    26    23    1
   186    26    27    1
   187    23    24    1
   188    27    28   ar
   189    27    29   ar
   190    82    83    2
   191    82    81    1
   192    28    30   ar
   193    38    37    1
   194    29    32   ar
   195    29    31   ar
   196    32    34   ar
   197    85    84    1
   198    30    31   ar
   199    31    33   ar
   200    34    35   ar
   201    33    35   ar
   202    37    36    1
   203    81    84    1
   204    81    80    1
   205    99   100   ar
   206    99   101   ar
   207   100   102   ar
   208    84    86    1
   209    24    25    2
   210   101   104   ar
   211   101   103   ar
   212    52    51    1
   213   102   103   ar
   214   104   106   ar
   215   103   105   ar
   216    50    51   ar
   217    50    48   ar
   218    51    49   ar
   219   106   107   ar
   220   105   107   ar
   221    48    46   ar
   222    49    47   ar
   223    46    47   ar
   224    46    45    1
   225    45    42    1
   226    42    41    1
   227    42    43    1
   228    44    43    2
