@<TRIPOS>MOLECULE
tmp/1s5zA00.pdb
 131 122 0 0 0
SMALL
GASTEIGER

@<TRIPOS>ATOM
      1  N          1.8120   -8.7820    3.8810 N.3    11  LYS11      -0.1245
      2  CA         0.3990   -8.8970    4.2300 C.3    11  LYS11       0.1561
      3  C         -0.1550   -7.6600    4.9340 C.2    11  LYS11       0.2260
      4  O          0.6010   -6.7860    5.3480 O.2    11  LYS11      -0.2867
      5  CB         0.1900  -10.1530    5.0820 C.3    11  LYS11       0.0271
      6  CG         0.5920  -11.4290    4.3570 C.3    11  LYS11       0.0035
      7  CD         0.3820  -12.6710    5.2050 C.3    11  LYS11       0.0206
      8  CE         0.8340  -13.9170    4.4590 C.3    11  LYS11       0.1093
      9  NZ         0.6290  -15.1610    5.2550 N.3    11  LYS11      -0.1314
     10  N         -4.3850  -18.7870   -2.2980 N.3    51  TYR51      -0.1241
     11  CA        -4.3050  -19.8130   -1.2630 C.3    51  TYR51       0.1605
     12  C         -5.1350  -21.0670   -1.5420 C.2    51  TYR51       0.2264
     13  O         -5.5810  -21.7340   -0.6110 O.2    51  TYR51      -0.2867
     14  CB        -4.7170  -19.2200    0.0890 C.3    51  TYR51       0.0534
     15  CG        -3.6910  -18.2850    0.6900 C.ar   51  TYR51      -0.0201
     16  CD1       -2.3860  -18.7120    0.9150 C.ar   51  TYR51      -0.0009
     17  CD2       -4.0350  -16.9900    1.0730 C.ar   51  TYR51      -0.0009
     18  CE1       -1.4480  -17.8800    1.5130 C.ar   51  TYR51       0.0417
     19  CE2       -3.1000  -16.1440    1.6730 C.ar   51  TYR51       0.0417
     20  CZ        -1.8090  -16.6000    1.8920 C.ar   51  TYR51       0.1957
     21  OH        -0.8820  -15.7860    2.5040 O.3    51  TYR51      -0.2866
     22  N         -4.9270  -24.2750    0.5330 N.3    54  HIS54      -0.1241
     23  CA        -5.4680  -24.3480    1.8940 C.3    54  HIS54       0.1621
     24  C         -6.9950  -24.3130    1.9740 C.2    54  HIS54       0.2264
     25  O         -7.5590  -24.4010    3.0620 O.2    54  HIS54      -0.2867
     26  CB        -4.9220  -23.1770    2.7240 C.3    54  HIS54       0.0745
     27  CG        -3.4380  -23.0080    2.6330 C.ar   54  HIS54       0.0817
     28  ND1       -2.5520  -23.8260    3.3000 N.ar   54  HIS54      -0.2268
     29  CD2       -2.6840  -22.1390    1.9200 C.ar   54  HIS54       0.1154
     30  CE1       -1.3160  -23.4690    3.0010 C.ar   54  HIS54       0.1986
     31  NE2       -1.3680  -22.4480    2.1650 N.ar   54  HIS54      -0.2212
     32  N         -8.6280  -26.3500    4.6050 N.3    57  ARG57      -0.1245
     33  CA        -8.2720  -26.1620    6.0080 C.3    57  ARG57       0.1563
     34  C         -9.2970  -25.3150    6.7690 C.2    57  ARG57       0.2260
     35  O         -9.9400  -24.4300    6.1990 O.2    57  ARG57      -0.2867
     36  CB        -6.8910  -25.5090    6.1000 C.3    57  ARG57       0.0307
     37  CG        -5.7270  -26.4000    5.6720 C.3    57  ARG57       0.0489
     38  CD        -4.5340  -25.5400    5.2880 C.3    57  ARG57       0.2205
     39  NE        -3.2350  -26.1550    5.5580 N.pl3  57  ARG57      -0.0865
     40  CZ        -2.7890  -26.4710    6.7710 C.cat  57  ARG57       0.5346
     41  NH1       -3.5370  -26.2430    7.8380 N.pl3  57  ARG57       0.1354
     42  NH2       -1.5800  -26.9880    6.9220 N.pl3  57  ARG57       0.1354
     43  N         -8.9170  -22.9060    8.8770 N.3    59  PHE59      -0.1241
     44  CA        -8.6080  -21.4830    8.9660 C.3    59  PHE59       0.1605
     45  C         -8.6290  -20.7630    7.6240 C.2    59  PHE59       0.2264
     46  O         -8.2890  -19.5840    7.5500 O.2    59  PHE59      -0.2867
     47  CB        -7.2380  -21.2730    9.6230 C.3    59  PHE59       0.0534
     48  CG        -6.1000  -21.9220    8.8810 C.ar   59  PHE59      -0.0203
     49  CD1       -5.6110  -23.1630    9.2790 C.ar   59  PHE59      -0.0042
     50  CD2       -5.5160  -21.2920    7.7820 C.ar   59  PHE59      -0.0042
     51  CE1       -4.5580  -23.7670    8.6000 C.ar   59  PHE59      -0.0003
     52  CE2       -4.4590  -21.8900    7.0920 C.ar   59  PHE59      -0.0003
     53  CZ        -3.9790  -23.1320    7.5050 C.ar   59  PHE59      -0.0000
     54  N         -8.3520  -16.7460    6.7730 N.3    63  LEU63      -0.1245
     55  CA        -7.1650  -16.4090    6.0010 C.3    63  LEU63       0.1561
     56  C         -7.5630  -15.4920    4.8430 C.2    63  LEU63       0.2260
     57  O         -6.9330  -14.4670    4.5990 O.2    63  LEU63      -0.2867
     58  CB        -6.5300  -17.6830    5.4350 C.3    63  LEU63       0.0270
     59  CG        -5.0290  -17.6780    5.1280 C.3    63  LEU63       0.0019
     60  CD1       -4.6910  -18.8580    4.2250 C.3    63  LEU63       0.0001
     61  CD2       -4.6300  -16.3810    4.4720 C.3    63  LEU63       0.0001
     62  N         12.5470  -17.6530    1.1330 N.3    87  ARG87      -0.1245
     63  CA        11.8460  -18.3870    2.1880 C.3    87  ARG87       0.1563
     64  C         12.7210  -18.4890    3.4330 C.2    87  ARG87       0.2260
     65  O         12.2280  -18.4330    4.5570 O.2    87  ARG87      -0.2867
     66  CB        11.4710  -19.7950    1.7160 C.3    87  ARG87       0.0307
     67  CG        10.3700  -19.8280    0.6640 C.3    87  ARG87       0.0489
     68  CD         9.0530  -19.2700    1.2050 C.3    87  ARG87       0.2205
     69  NE         8.0610  -20.3160    1.4630 N.pl3  87  ARG87      -0.0865
     70  CZ         8.1680  -21.2410    2.4130 C.cat  87  ARG87       0.5346
     71  NH1        9.2270  -21.2570    3.2100 N.pl3  87  ARG87       0.1354
     72  NH2        7.2170  -22.1550    2.5630 N.pl3  87  ARG87       0.1354
     73  N          6.5240  -20.9820    9.0100 N.3    93  THR93      -0.1218
     74  CA         5.1150  -20.6360    9.2130 C.3    93  THR93       0.1862
     75  C          4.7900  -19.9690   10.5510 C.2    93  THR93       0.2287
     76  O          4.1490  -18.9170   10.5820 O.2    93  THR93      -0.2866
     77  CB         4.2230  -21.8780    9.0500 C.3    93  THR93       0.1770
     78  OG1        4.5190  -22.5130    7.7990 O.3    93  THR93      -0.2211
     79  CG2        2.7550  -21.4790    9.0770 C.3    93  THR93       0.0375
     80  N         10.0000  -13.0650    9.9440 N.3   104  ARG104     -0.1245
     81  CA         9.0010  -13.4720   10.9230 C.3   104  ARG104      0.1563
     82  C          9.6390  -13.6360   12.2970 C.2   104  ARG104      0.2260
     83  O          9.0020  -13.3890   13.3200 O.2   104  ARG104     -0.2867
     84  CB         8.3410  -14.7800   10.4990 C.3   104  ARG104      0.0307
     85  CG         7.4440  -14.6390    9.2840 C.3   104  ARG104      0.0489
     86  CD         6.9470  -15.9920    8.8250 C.3   104  ARG104      0.2205
     87  NE         6.0400  -15.8780    7.6850 N.pl3 104  ARG104     -0.0865
     88  CZ         5.6030  -16.9160    6.9830 C.cat 104  ARG104      0.5346
     89  NH1        5.9930  -18.1400    7.3080 N.pl3 104  ARG104      0.1354
     90  NH2        4.7880  -16.7300    5.9520 N.pl3 104  ARG104      0.1354
     91  N          0.7950  -16.9570   14.0500 N.3   111  VAL111     -0.1231
     92  CA         0.7270  -17.5640   12.7260 C.3   111  VAL111      0.1692
     93  C         -0.3000  -16.8720   11.8210 C.2   111  VAL111      0.2592
     94  O         -0.1280  -16.8280   10.6020 O.2   111  VAL111     -0.2718
     95  CB         0.3890  -19.0750   12.8250 C.3   111  VAL111      0.0266
     96  CG1       -0.9290  -19.2700   13.5540 C.3   111  VAL111      0.0020
     97  CG2        0.3260  -19.6890   11.4380 C.3   111  VAL111      0.0020
     98  N         -1.3560  -16.3260   12.4200 N.am  112  GLY112     -0.1957
     99  CA        -2.3870  -15.6450   11.6500 C.3   112  GLY112      0.1869
    100  C         -2.0110  -14.2170   11.2960 C.2   112  GLY112      0.2309
    101  O         -2.7360  -13.5160   10.5860 O.2   112  GLY112     -0.2863
    102  N          1.5070  -13.3940   10.3230 N.3   114  ASN114     -0.1240
    103  CA         2.9150  -13.6650   10.0770 C.3   114  ASN114      0.1653
    104  C          3.6170  -12.7450    9.0860 C.2   114  ASN114      0.2266
    105  O          4.5000  -13.1700    8.3480 O.2   114  ASN114     -0.2867
    106  CB         3.1270  -15.1330    9.6840 C.3   114  ASN114      0.1155
    107  CG         2.4010  -15.5120    8.4170 C.2   114  ASN114      0.2627
    108  OD1        1.7720  -14.6750    7.7720 O.2   114  ASN114     -0.2716
    109  ND2        2.4890  -16.7860    8.0490 N.am  114  ASN114     -0.0877
    110  N          4.3100  -13.1840    2.8660 N.3   117  HIS117     -0.1226
    111  CA         4.1630  -14.4250    2.1150 C.3   117  HIS117      0.1752
    112  C          5.2780  -14.5470    1.0770 C.2   117  HIS117      0.2596
    113  O          5.6650  -13.5600    0.4500 O.2   117  HIS117     -0.2718
    114  CB         2.8330  -14.4680    1.3680 C.3   117  HIS117      0.0759
    115  CG         2.7890  -15.5230    0.3060 C.ar  117  HIS117      0.0818
    116  ND1        2.4950  -16.8400    0.5780 N.ar  117  HIS117     -0.2268
    117  CD2        3.0910  -15.4710   -1.0130 C.ar  117  HIS117      0.1154
    118  CE1        2.6180  -17.5560   -0.5250 C.ar  117  HIS117      0.1986
    119  NE2        2.9800  -16.7490   -1.5060 N.ar  117  HIS117     -0.2212
    120  N          5.7760  -15.7650    0.8900 N.am  118  GLY118     -0.1957
    121  CA         6.8130  -16.0140   -0.0950 C.3   118  GLY118      0.1869
    122  C          6.5370  -17.3330   -0.8000 C.2   118  GLY118      0.2309
    123  O          6.1910  -18.3180   -0.1470 O.2   118  GLY118     -0.2863
    124  N          6.7130  -20.9200   -2.2900 N.3   120  ASP120     -0.1239
    125  CA         7.4570  -22.0470   -1.7380 C.3   120  ASP120      0.1674
    126  C          8.1860  -22.8960   -2.7730 C.2   120  ASP120      0.2266
    127  O          8.9680  -23.7800   -2.4190 O.2   120  ASP120     -0.2867
    128  CB         6.5320  -22.9230   -0.8880 C.3   120  ASP120      0.1410
    129  CG         5.5140  -23.6780   -1.7130 C.2   120  ASP120      0.3668
    130  OD1        5.2510  -23.2850   -2.8680 O.co2 120  ASP120     -0.2456
    131  OD2        4.9640  -24.6660   -1.1900 O.co2 120  ASP120     -0.2456
@<TRIPOS>BOND
     1   130   129   ar
     2   126   127    2
     3   126   125    1
     4    10    11    1
     5   124   125    1
     6   125   128    1
     7   129   131   ar
     8   129   128    1
     9    12    11    1
    10    12    13    2
    11   119   117   ar
    12   119   118   ar
    13    11    14    1
    14   117   115   ar
    15   122   123    2
    16   122   121    1
    17   118   116   ar
    18   121   120    1
    19    14    15    1
    20   115   116   ar
    21   115   114    1
    22   113   112    2
    23    22    23    1
    24    67    68    1
    25    67    66    1
    26    15    16   ar
    27    15    17   ar
    28   120   112   am
    29    16    18   ar
    30    17    19   ar
    31   112   111    1
    32    62    63    1
    33    68    69    1
    34   114   111    1
    35    69    70    2
    36    18    20   ar
    37    19    20   ar
    38    66    63    1
    39    20    21    1
    40    23    24    1
    41    23    26    1
    42    29    31   ar
    43    29    27   ar
    44    24    25    2
    45   111   110    1
    46    31    30   ar
    47    63    64    1
    48    70    72    1
    49    70    71    1
    50    27    26    1
    51    27    28   ar
    52    30    28   ar
    53    64    65    2
    54     1     2    1
    55    60    59    1
    56     2     3    1
    57     2     5    1
    58     6     5    1
    59     6     7    1
    60     8     7    1
    61     8     9    1
    62    61    59    1
    63    57    56    2
    64    32    33    1
    65    56    55    1
    66     3     4    2
    67    59    58    1
    68    38    39    1
    69    38    37    1
    70    58    55    1
    71    39    40    2
    72    37    36    1
    73    90    88    1
    74    55    54    1
    75    33    36    1
    76    33    34    1
    77    35    34    2
    78    40    42    1
    79    40    41    1
    80    88    89    1
    81    88    87    2
    82    52    53   ar
    83    52    50   ar
    84    53    51   ar
    85    46    45    2
    86    45    44    1
    87    87    86    1
    88   108   107    2
    89    50    48   ar
    90    78    77    1
    91   109   107   am
    92   105   104    2
    93   107   106    1
    94    51    49   ar
    95    86    85    1
    96    43    44    1
    97    48    49   ar
    98    48    47    1
    99    44    47    1
   100    73    74    1
   101    77    79    1
   102    77    74    1
   103   104   103    1
   104    74    75    1
   105    85    84    1
   106   106   103    1
   107    80    81    1
   108   103   102    1
   109    84    81    1
   110    75    76    2
   111   101   100    2
   112    94    93    2
   113    81    82    1
   114   100    99    1
   115    97    95    1
   116    99    98    1
   117    93    98   am
   118    93    92    1
   119    82    83    2
   120    92    95    1
   121    92    91    1
   122    95    96    1
