@<TRIPOS>MOLECULE
tmp/1s61B00.pdb
 247 239 0 0 0
SMALL
GASTEIGER

@<TRIPOS>ATOM
      1  N         22.7330   48.7630   62.2100 N.3    31  PHE31      -0.1227
      2  CA        21.2780   48.7730   62.0730 C.3    31  PHE31       0.1736
      3  C         20.5940   48.5220   63.4240 C.2    31  PHE31       0.2595
      4  O         19.6830   49.2600   63.8310 O.2    31  PHE31      -0.2718
      5  CB        20.8750   47.7080   61.0310 C.3    31  PHE31       0.0547
      6  CG        19.4000   47.4010   60.9730 C.ar   31  PHE31      -0.0202
      7  CD1       18.4920   48.3450   60.5520 C.ar   31  PHE31      -0.0042
      8  CD2       18.9350   46.1440   61.2950 C.ar   31  PHE31      -0.0042
      9  CE1       17.1500   48.0550   60.4730 C.ar   31  PHE31      -0.0003
     10  CE2       17.5730   45.8440   61.2230 C.ar   31  PHE31      -0.0003
     11  CZ        16.6880   46.8070   60.8060 C.ar   31  PHE31      -0.0000
     12  N         21.0200   47.4800   64.1320 N.am   32  TYR32      -0.1976
     13  CA        20.4230   47.1670   65.4210 C.3    32  TYR32       0.1639
     14  C         20.7730   48.1820   66.5170 C.2    32  TYR32       0.2290
     15  O         19.9580   48.4810   67.3990 O.2    32  TYR32      -0.2864
     16  CB        20.7670   45.7330   65.8160 C.3    32  TYR32       0.0560
     17  CG        19.9000   44.7520   65.0780 C.ar   32  TYR32      -0.0198
     18  CD1       18.5350   44.7250   65.2910 C.ar   32  TYR32      -0.0009
     19  CD2       20.4230   43.8880   64.1350 C.ar   32  TYR32      -0.0009
     20  CE1       17.7110   43.8510   64.6060 C.ar   32  TYR32       0.0417
     21  CE2       19.5960   43.0140   63.4360 C.ar   32  TYR32       0.0417
     22  CZ        18.2450   43.0040   63.6790 C.ar   32  TYR32       0.1957
     23  OH        17.4030   42.1510   62.9940 O.3    32  TYR32      -0.2866
     24  N         10.3900   51.0320   68.6400 N.3    41  LEU41      -0.1245
     25  CA        10.6800   49.6690   68.2020 C.3    41  LEU41       0.1561
     26  C         11.2510   48.7700   69.2830 C.2    41  LEU41       0.2260
     27  O         11.1190   47.5480   69.2180 O.2    41  LEU41      -0.2867
     28  CB        11.6840   49.7240   67.0430 C.3    41  LEU41       0.0270
     29  CG        11.1660   50.4030   65.7840 C.3    41  LEU41       0.0019
     30  CD1       12.2550   50.4910   64.7750 C.3    41  LEU41       0.0001
     31  CD2        9.9960   49.6650   65.2210 C.3    41  LEU41       0.0001
     32  N          9.7590   45.5480   71.1050 N.3    44  PHE44      -0.1227
     33  CA         9.5730   44.3090   70.3500 C.3    44  PHE44       0.1736
     34  C         10.7290   43.3350   70.5400 C.2    44  PHE44       0.2595
     35  O         10.5960   42.1380   70.2670 O.2    44  PHE44      -0.2718
     36  CB         9.4330   44.5860   68.8640 C.3    44  PHE44       0.0547
     37  CG         8.1140   45.1360   68.4750 C.ar   44  PHE44      -0.0202
     38  CD1        7.0100   44.3120   68.3870 C.ar   44  PHE44      -0.0042
     39  CD2        7.9730   46.4930   68.1960 C.ar   44  PHE44      -0.0042
     40  CE1        5.7900   44.8220   68.0330 C.ar   44  PHE44      -0.0003
     41  CE2        6.7500   47.0160   67.8550 C.ar   44  PHE44      -0.0003
     42  CZ         5.6550   46.1820   67.7710 C.ar   44  PHE44      -0.0000
     43  N         11.8680   43.8410   70.9720 N.am   45  PHE45      -0.1976
     44  CA        13.0560   43.0020   71.1090 C.3    45  PHE45       0.1639
     45  C         13.4760   42.7560   72.5460 C.2    45  PHE45       0.2290
     46  O         14.5980   42.2940   72.7930 O.2    45  PHE45      -0.2864
     47  CB        14.2460   43.6300   70.3620 C.3    45  PHE45       0.0560
     48  CG        13.9960   43.8420   68.8930 C.ar   45  PHE45      -0.0200
     49  CD1       14.1850   42.8050   67.9900 C.ar   45  PHE45      -0.0042
     50  CD2       13.5600   45.0740   68.4150 C.ar   45  PHE45      -0.0042
     51  CE1       13.9540   42.9970   66.6360 C.ar   45  PHE45      -0.0003
     52  CE2       13.2980   45.2620   67.0570 C.ar   45  PHE45      -0.0003
     53  CZ        13.5090   44.2240   66.1600 C.ar   45  PHE45      -0.0000
     54  N         13.8980   40.6540   75.6160 N.3    47  GLY47      -0.1210
     55  CA        13.9410   39.2080   75.7160 C.3    47  GLY47       0.1956
     56  C         14.6460   38.5330   74.5530 C.2    47  GLY47       0.2613
     57  O         14.9830   37.3550   74.6300 O.2    47  GLY47      -0.2717
     58  N         14.8820   39.2690   73.4730 N.am   48  THR48      -0.1938
     59  CA        15.4890   38.6820   72.2930 C.3    48  THR48       0.2028
     60  C         16.9740   38.4080   72.4940 C.2    48  THR48       0.2642
     61  O         17.6990   39.1670   73.1170 O.2    48  THR48      -0.2714
     62  CB        15.2660   39.5640   71.0710 C.3    48  THR48       0.1808
     63  OG1       13.8720   39.5680   70.7200 O.3    48  THR48      -0.2208
     64  CG2       15.9500   38.9670   69.8380 C.3    48  THR48       0.0379
     65  N         17.4050   37.2700   71.9780 N.am   49  ASN49      -0.1971
     66  CA        18.8030   36.9270   71.9800 C.3    49  ASN49       0.1688
     67  C         19.4350   37.6890   70.8100 C.2    49  ASN49       0.2292
     68  O         19.3840   37.2450   69.6660 O.2    49  ASN49      -0.2864
     69  CB        18.9470   35.4180   71.8370 C.3    49  ASN49       0.1181
     70  CG        20.3810   34.9890   71.6620 C.2    49  ASN49       0.2629
     71  OD1       21.2680   35.8140   71.4260 O.2    49  ASN49      -0.2716
     72  ND2       20.6180   33.6940   71.7610 N.am   49  ASN49      -0.0877
     73  N         22.1960   36.1880   68.3930 N.3    52  ARG52      -0.1231
     74  CA        21.6380   35.1710   67.4950 C.3    52  ARG52       0.1694
     75  C         20.8550   35.8040   66.3550 C.2    52  ARG52       0.2591
     76  O         21.0580   35.4680   65.2030 O.2    52  ARG52      -0.2718
     77  CB        20.7180   34.1940   68.2500 C.3    52  ARG52       0.0321
     78  CG        20.2100   33.0280   67.4040 C.3    52  ARG52       0.0489
     79  CD        19.1520   32.1280   68.0610 C.3    52  ARG52       0.2205
     80  NE        18.4700   31.2770   67.0730 N.pl3  52  ARG52      -0.0865
     81  CZ        17.4490   31.6780   66.3000 C.cat  52  ARG52       0.5346
     82  NH1       16.9570   32.9100   66.3870 N.pl3  52  ARG52       0.1354
     83  NH2       16.9080   30.8430   65.4290 N.pl3  52  ARG52       0.1354
     84  N         19.9700   36.7300   66.6880 N.am   53  LEU53      -0.1980
     85  CA        19.1770   37.4360   65.6920 C.3    53  LEU53       0.1596
     86  C         20.0440   38.1620   64.6620 C.2    53  LEU53       0.2287
     87  O         19.7680   38.1350   63.4740 O.2    53  LEU53      -0.2864
     88  CB        18.2630   38.4490   66.3880 C.3    53  LEU53       0.0297
     89  CG        17.6230   39.4610   65.4570 C.3    53  LEU53       0.0022
     90  CD1       16.6690   38.7820   64.5480 C.3    53  LEU53       0.0001
     91  CD2       16.9010   40.5230   66.2500 C.3    53  LEU53       0.0001
     92  N         21.3140   35.7470   62.1910 N.3    56  LYS56      -0.1231
     93  CA        20.2940   35.3040   61.2610 C.3    56  LYS56       0.1693
     94  C         19.9950   36.4120   60.2400 C.2    56  LYS56       0.2591
     95  O         19.7280   36.1230   59.0850 O.2    56  LYS56      -0.2718
     96  CB        19.0230   34.8960   62.0210 C.3    56  LYS56       0.0285
     97  CG        19.2290   33.7290   62.9850 C.3    56  LYS56       0.0035
     98  CD        19.2300   32.4110   62.2310 C.3    56  LYS56       0.0206
     99  CE        19.7350   31.2310   63.0730 C.3    56  LYS56       0.1093
    100  NZ        20.3760   30.2090   62.2130 N.3    56  LYS56      -0.1314
    101  N         20.0090   37.6680   60.6750 N.am   57  GLN57      -0.1979
    102  CA        19.7930   38.7940   59.7840 C.3    57  GLN57       0.1601
    103  C         20.9000   38.9370   58.7450 C.2    57  GLN57       0.2287
    104  O         20.6410   39.2460   57.5800 O.2    57  GLN57      -0.2864
    105  CB        19.7660   40.0880   60.5760 C.3    57  GLN57       0.0394
    106  CG        19.2260   41.2760   59.7890 C.3    57  GLN57       0.0908
    107  CD        17.7890   41.0850   59.3800 C.2    57  GLN57       0.2608
    108  OE1       16.8710   41.5210   60.0700 O.2    57  GLN57      -0.2717
    109  NE2       17.5860   40.4640   58.2540 N.am   57  GLN57      -0.0878
    110  N         20.1880   36.3680   56.3100 N.3    60  PHE60      -0.1227
    111  CA        19.0090   36.6710   55.4980 C.3    60  PHE60       0.1736
    112  C         19.2520   37.7310   54.4680 C.2    60  PHE60       0.2595
    113  O         18.7940   37.6370   53.3420 O.2    60  PHE60      -0.2718
    114  CB        17.8120   37.1110   56.3350 C.3    60  PHE60       0.0547
    115  CG        16.5930   37.3780   55.5100 C.ar   60  PHE60      -0.0202
    116  CD1       15.7510   36.3450   55.1430 C.ar   60  PHE60      -0.0042
    117  CD2       16.3140   38.6680   55.0740 C.ar   60  PHE60      -0.0042
    118  CE1       14.6290   36.5880   54.3640 C.ar   60  PHE60      -0.0003
    119  CE2       15.1880   38.9350   54.2990 C.ar   60  PHE60      -0.0003
    120  CZ        14.3540   37.8960   53.9320 C.ar   60  PHE60      -0.0000
    121  N         19.9490   38.7780   54.8640 N.am   61  PHE61      -0.1976
    122  CA        20.2030   39.8780   53.9550 C.3    61  PHE61       0.1639
    123  C         21.1530   39.3580   52.8900 C.2    61  PHE61       0.2290
    124  O         20.9320   39.5530   51.7030 O.2    61  PHE61      -0.2864
    125  CB        20.8140   41.0660   54.6980 C.3    61  PHE61       0.0560
    126  CG        19.8040   41.9810   55.3520 C.ar   61  PHE61      -0.0200
    127  CD1       18.4820   41.9940   54.9520 C.ar   61  PHE61      -0.0042
    128  CD2       20.1990   42.8550   56.3600 C.ar   61  PHE61      -0.0042
    129  CE1       17.5550   42.8530   55.5480 C.ar   61  PHE61      -0.0003
    130  CE2       19.2740   43.7260   56.9680 C.ar   61  PHE61      -0.0003
    131  CZ        17.9520   43.7230   56.5520 C.ar   61  PHE61      -0.0000
    132  N         20.0850   30.7360   53.7560 N.3    71  TYR71      -0.1241
    133  CA        19.5280   31.3090   54.9740 C.3    71  TYR71       0.1605
    134  C         19.0830   30.1510   55.8530 C.2    71  TYR71       0.2264
    135  O         18.4470   29.2400   55.3800 O.2    71  TYR71      -0.2867
    136  CB        18.3450   32.2130   54.6370 C.3    71  TYR71       0.0534
    137  CG        17.5200   32.6630   55.8250 C.ar   71  TYR71      -0.0201
    138  CD1       18.0910   33.3850   56.8640 C.ar   71  TYR71      -0.0009
    139  CD2       16.1480   32.3770   55.8930 C.ar   71  TYR71      -0.0009
    140  CE1       17.3290   33.7990   57.9440 C.ar   71  TYR71       0.0417
    141  CE2       15.3830   32.7930   56.9640 C.ar   71  TYR71       0.0417
    142  CZ        15.9760   33.4950   57.9920 C.ar   71  TYR71       0.1957
    143  OH        15.2070   33.9200   59.0550 O.3    71  TYR71      -0.2866
    144  N         17.5870   30.5800   59.0050 N.3    73  GLY73      -0.1210
    145  CA        16.6160   30.9930   60.0020 C.3    73  GLY73       0.1956
    146  C         15.1830   30.6070   59.6760 C.2    73  GLY73       0.2611
    147  O         14.9300   29.7580   58.8170 O.2    73  GLY73      -0.2717
    148  N         14.2330   31.2250   60.3790 N.am   74  ALA74      -0.1979
    149  CA        12.7990   31.0060   60.0790 C.3    74  ALA74       0.1597
    150  C         12.3320   31.9700   59.0000 C.2    74  ALA74       0.2287
    151  O         12.9090   33.0540   58.8200 O.2    74  ALA74      -0.2864
    152  CB        11.9600   31.1780   61.3390 C.3    74  ALA74       0.0319
    153  N          9.9640   34.7310   57.0160 N.3    76  MET76      -0.1245
    154  CA         9.5770   36.0270   57.5360 C.3    76  MET76       0.1570
    155  C          8.1760   36.0250   58.1040 C.2    76  MET76       0.2261
    156  O          7.9120   36.6690   59.1220 O.2    76  MET76      -0.2867
    157  CB         9.6850   37.0980   56.4590 C.3    76  MET76       0.0387
    158  CG        11.0930   37.4120   56.0460 C.3    76  MET76       0.0595
    159  SD        12.1970   37.8590   57.3840 S.3    76  MET76      -0.1393
    160  CE        12.7800   36.2780   57.9450 C.3    76  MET76       0.0692
    161  N          8.0880   34.1210   61.6390 N.3    79  VAL79      -0.1231
    162  CA         8.8290   34.7230   62.7350 C.3    79  VAL79       0.1692
    163  C          8.1240   35.9940   63.2240 C.2    79  VAL79       0.2592
    164  O          8.1440   36.2560   64.4170 O.2    79  VAL79      -0.2718
    165  CB        10.3150   35.0100   62.3710 C.3    79  VAL79       0.0266
    166  CG1       10.4450   36.3040   61.7210 C.3    79  VAL79       0.0020
    167  CG2       11.1800   34.9770   63.6160 C.3    79  VAL79       0.0020
    168  N          7.4800   36.7430   62.3320 N.am   80  HIS80      -0.1976
    169  CA         6.8260   37.9860   62.7400 C.3    80  HIS80       0.1656
    170  C          5.3500   37.8210   63.1370 C.2    80  HIS80       0.2291
    171  O          4.7150   38.7410   63.6360 O.2    80  HIS80      -0.2864
    172  CB         7.0180   39.0350   61.6600 C.3    80  HIS80       0.0771
    173  CG         8.4620   39.3290   61.3900 C.ar   80  HIS80       0.0820
    174  ND1        9.0830   39.0010   60.2120 N.ar   80  HIS80      -0.2267
    175  CD2        9.4240   39.8600   62.1780 C.ar   80  HIS80       0.1154
    176  CE1       10.3550   39.3530   60.2690 C.ar   80  HIS80       0.1986
    177  NE2       10.5890   39.8750   61.4510 N.ar   80  HIS80      -0.2212
    178  N          2.8350   39.4000   66.3520 N.3    83  ARG83      -0.1245
    179  CA         3.5550   40.4740   67.0180 C.3    83  ARG83       0.1563
    180  C          2.8770   41.7930   66.7670 C.2    83  ARG83       0.2260
    181  O          3.2410   42.8060   67.3420 O.2    83  ARG83      -0.2867
    182  CB         4.9920   40.5360   66.5230 C.3    83  ARG83       0.0307
    183  CG         5.8300   39.3890   66.9830 C.3    83  ARG83       0.0489
    184  CD         7.2450   39.4400   66.5140 C.3    83  ARG83       0.2205
    185  NE         7.8850   38.1260   66.6440 N.pl3  83  ARG83      -0.0865
    186  CZ         8.4410   37.6580   67.7610 C.cat  83  ARG83       0.5346
    187  NH1        8.4450   38.3580   68.8700 N.pl3  83  ARG83       0.1354
    188  NH2        8.9880   36.4670   67.7700 N.pl3  83  ARG83       0.1354
    189  N          3.0630   43.7630   64.2440 N.3    85  ILE85      -0.1245
    190  CA         3.8780   44.7400   63.5000 C.3    85  ILE85       0.1561
    191  C          3.0880   45.4750   62.4090 C.2    85  ILE85       0.2260
    192  O          2.3990   44.8600   61.5970 O.2    85  ILE85      -0.2867
    193  CB         5.1320   44.0320   62.9220 C.3    85  ILE85       0.0252
    194  CG1        5.8690   43.3290   64.0590 C.3    85  ILE85       0.0019
    195  CG2        6.0730   45.0300   62.2230 C.3    85  ILE85       0.0019
    196  CD1        7.0340   42.4590   63.6140 C.3    85  ILE85       0.0001
    197  N          5.6730   50.5440   61.6270 N.3    89  HIS89      -0.1226
    198  CA         6.8690   49.9320   62.1980 C.3    89  HIS89       0.1752
    199  C          7.8590   49.5740   61.1030 C.2    89  HIS89       0.2596
    200  O          9.0770   49.6990   61.2860 O.2    89  HIS89      -0.2718
    201  CB         6.5210   48.6740   62.9990 C.3    89  HIS89       0.0759
    202  CG         5.7650   48.9580   64.2570 C.ar   89  HIS89       0.0818
    203  ND1        4.6590   48.2290   64.6380 N.ar   89  HIS89      -0.2268
    204  CD2        5.9380   49.9080   65.2060 C.ar   89  HIS89       0.1154
    205  CE1        4.1990   48.7050   65.7800 C.ar   89  HIS89       0.1986
    206  NE2        4.9520   49.7300   66.1390 N.ar   89  HIS89      -0.2212
    207  N          7.3310   49.1120   59.9760 N.am   90  PHE90      -0.1976
    208  CA         8.1780   48.7070   58.8510 C.3    90  PHE90       0.1639
    209  C          8.9120   49.8970   58.2230 C.2    90  PHE90       0.2290
    210  O         10.1260   49.7990   57.9200 O.2    90  PHE90      -0.2864
    211  CB         7.3300   48.0000   57.8220 C.3    90  PHE90       0.0560
    212  CG         8.1030   47.1530   56.8750 C.ar   90  PHE90      -0.0200
    213  CD1        8.2640   45.7850   57.1200 C.ar   90  PHE90      -0.0042
    214  CD2        8.6440   47.7030   55.7280 C.ar   90  PHE90      -0.0042
    215  CE1        8.9470   45.0040   56.2480 C.ar   90  PHE90      -0.0003
    216  CE2        9.3410   46.9230   54.8510 C.ar   90  PHE90      -0.0003
    217  CZ         9.5010   45.5720   55.1030 C.ar   90  PHE90      -0.0000
    218  N         11.8050   50.7390   60.5590 N.3    93  VAL93      -0.1245
    219  CA        12.8850   49.7730   60.3860 C.3    93  VAL93       0.1561
    220  C         13.6160   49.9900   59.0730 C.2    93  VAL93       0.2260
    221  O         14.8470   49.9510   59.0340 O.2    93  VAL93      -0.2867
    222  CB        12.3300   48.3310   60.4280 C.3    93  VAL93       0.0252
    223  CG1       13.3690   47.3250   59.9500 C.3    93  VAL93       0.0019
    224  CG2       11.8440   47.9960   61.8310 C.3    93  VAL93       0.0019
    225  N         13.9570   44.7350   49.9790 N.3   118  ILE118     -0.1245
    226  CA        13.4130   44.7240   51.3380 C.3   118  ILE118      0.1561
    227  C         11.9090   45.0490   51.3560 C.2   118  ILE118      0.2260
    228  O         11.1200   44.3980   52.0450 O.2   118  ILE118     -0.2867
    229  CB        14.1880   45.7460   52.1870 C.3   118  ILE118      0.0252
    230  CG1       15.5950   45.2270   52.4860 C.3   118  ILE118      0.0019
    231  CG2       13.4490   46.0800   53.4830 C.3   118  ILE118      0.0019
    232  CD1       15.7120   43.7180   52.4000 C.3   118  ILE118      0.0001
    233  N          8.9610   42.7440   51.2580 N.3   121  LEU121     -0.1245
    234  CA         8.8890   41.8480   52.3960 C.3   121  LEU121      0.1561
    235  C          7.8520   42.3010   53.3980 C.2   121  LEU121      0.2260
    236  O          7.4730   41.5420   54.2730 O.2   121  LEU121     -0.2867
    237  CB        10.2590   41.7510   53.0590 C.3   121  LEU121      0.0270
    238  CG        11.2550   40.8900   52.2840 C.3   121  LEU121      0.0019
    239  CD1       12.4800   40.6890   53.1260 C.3   121  LEU121      0.0001
    240  CD2       10.6780   39.5220   51.9020 C.3   121  LEU121      0.0001
    241  N          6.0050   40.4370   56.7080 N.3   125  VAL125     -0.1245
    242  CA         6.4020   40.8370   58.0540 C.3   125  VAL125      0.1561
    243  C          5.2880   41.5110   58.8430 C.2   125  VAL125      0.2260
    244  O          5.2790   41.4690   60.0690 O.2   125  VAL125     -0.2867
    245  CB         7.5890   41.8000   57.9980 C.3   125  VAL125      0.0252
    246  CG1        7.8110   42.4470   59.3440 C.3   125  VAL125      0.0019
    247  CG2        8.8200   41.0610   57.5190 C.3   125  VAL125      0.0019
@<TRIPOS>BOND
     1   225   226    1
     2   233   234    1
     3   226   227    1
     4   226   229    1
     5   227   228    2
     6   124   123    2
     7   240   238    1
     8   229   230    1
     9   229   231    1
    10   238   237    1
    11   238   239    1
    12   234   237    1
    13   234   235    1
    14   232   230    1
    15   123   122    1
    16   113   112    2
    17   235   236    2
    18   132   133    1
    19   120   119   ar
    20   120   118   ar
    21   122   125    1
    22   122   121    1
    23   119   117   ar
    24   118   116   ar
    25   112   121   am
    26   112   111    1
    27   136   133    1
    28   136   137    1
    29   125   126    1
    30   216   217   ar
    31   216   214   ar
    32   127   126   ar
    33   127   129   ar
    34   133   134    1
    35   117   115   ar
    36   217   215   ar
    37   116   115   ar
    38   126   128   ar
    39   135   134    2
    40   111   110    1
    41   111   114    1
    42   115   114    1
    43   129   131   ar
    44   214   212   ar
    45   137   139   ar
    46   137   138   ar
    47   139   141   ar
    48   158   157    1
    49   158   159    1
    50   215   213   ar
    51   128   130   ar
    52   157   154    1
    53   131   130   ar
    54   241   242    1
    55   138   140   ar
    56   212   213   ar
    57   212   211    1
    58   141   142   ar
    59   153   154    1
    60   159   160    1
    61   247   245    1
    62   154   155    1
    63   104   103    2
    64   211   208    1
    65   210   209    2
    66   140   142   ar
    67   142   143    1
    68   245   242    1
    69   245   246    1
    70   242   243    1
    71   155   156    2
    72   209   208    1
    73   109   107   am
    74   103   102    1
    75   147   146    2
    76   151   150    2
    77   243   244    2
    78   208   207    1
    79   150   149    1
    80   144   145    1
    81   221   220    2
    82   220   219    1
    83    95    94    2
    84   107   106    1
    85   107   108    2
    86   146   145    1
    87   146   148   am
    88   102   105    1
    89   102   101    1
    90   106   105    1
    91   223   222    1
    92   207   199   am
    93   149   148    1
    94   149   152    1
    95   174   176   ar
    96   174   173   ar
    97    94   101   am
    98    94    93    1
    99   176   177   ar
   100   219   222    1
   101   219   218    1
   102   222   224    1
   103     9     7   ar
   104     9    11   ar
   105     7     6   ar
   106    11    10   ar
   107     6     5    1
   108     6     8   ar
   109     5     2    1
   110   199   200    2
   111   199   198    1
   112    10     8   ar
   113    93    96    1
   114    93    92    1
   115   173   172    1
   116   173   175   ar
   117   177   175   ar
   118   192   191    2
   119   197   198    1
   120   161   162    1
   121   172   169    1
   122   166   165    1
   123    96    97    1
   124     2     1    1
   125     2     3    1
   126   198   201    1
   127   100    99    1
   128   195   193    1
   129    98    97    1
   130    98    99    1
   131   168   169    1
   132   168   163   am
   133   165   162    1
   134   165   167    1
   135   191   190    1
   136   162   163    1
   137   169   170    1
   138   193   190    1
   139   193   194    1
   140    23    22    1
   141   201   202    1
   142   170   171    2
   143   163   164    2
   144     3     4    2
   145     3    12   am
   146    21    22   ar
   147    21    19   ar
   148    87    86    2
   149   190   189    1
   150   196   194    1
   151    22    20   ar
   152    12    13    1
   153    19    17   ar
   154   202   203   ar
   155   202   204   ar
   156    90    89    1
   157    20    18   ar
   158   203   205   ar
   159    86    85    1
   160    30    29    1
   161    17    18   ar
   162    17    16    1
   163    76    75    2
   164   204   206   ar
   165    31    29    1
   166    13    16    1
   167    13    14    1
   168    83    81    1
   169    89    91    1
   170    89    88    1
   171    85    88    1
   172    85    84    1
   173   205   206   ar
   174    29    28    1
   175    53    51   ar
   176    53    52   ar
   177    81    82    1
   178    81    80    2
   179   178   179    1
   180    75    84   am
   181    75    74    1
   182   184   185    1
   183   184   183    1
   184    14    15    2
   185   182   183    1
   186   182   179    1
   187    51    49   ar
   188   185   186    2
   189   180   179    1
   190   180   181    2
   191    28    25    1
   192    52    50   ar
   193    80    79    1
   194    78    79    1
   195    78    77    1
   196    74    77    1
   197    74    73    1
   198   186   188    1
   199   186   187    1
   200    42    41   ar
   201    42    40   ar
   202    41    39   ar
   203    49    48   ar
   204    40    38   ar
   205    39    37   ar
   206    25    24    1
   207    25    26    1
   208    38    37   ar
   209    50    48   ar
   210    37    36    1
   211    36    33    1
   212    48    47    1
   213    27    26    2
   214    68    67    2
   215    64    62    1
   216    35    34    2
   217    33    34    1
   218    33    32    1
   219    47    44    1
   220    34    43   am
   221    63    62    1
   222    67    66    1
   223    43    44    1
   224    62    59    1
   225    44    45    1
   226    71    70    2
   227    70    72   am
   228    70    69    1
   229    69    66    1
   230    65    66    1
   231    65    60   am
   232    59    60    1
   233    59    58    1
   234    60    61    2
   235    45    46    2
   236    58    56   am
   237    56    57    2
   238    56    55    1
   239    54    55    1
