@<TRIPOS>MOLECULE
tmp/1s63B02.pdb
 170 167 0 0 0
SMALL
GASTEIGER

@<TRIPOS>ATOM
      1  N         13.2670  143.6480   -4.3640 N.3    82  LEU82      -0.1245
      2  CA        12.4530  142.4900   -4.7300 C.3    82  LEU82       0.1561
      3  C         11.3820  142.8690   -5.7540 C.2    82  LEU82       0.2260
      4  O         10.4120  142.1390   -5.9630 O.2    82  LEU82      -0.2867
      5  CB        11.8190  141.8520   -3.4810 C.3    82  LEU82       0.0270
      6  CG        12.7740  141.0240   -2.6060 C.3    82  LEU82       0.0019
      7  CD1       12.0690  140.5310   -1.3490 C.3    82  LEU82       0.0001
      8  CD2       13.2900  139.8320   -3.3870 C.3    82  LEU82       0.0001
      9  N         10.6470  140.2130   -8.1410 N.3    85  SER85      -0.1217
     10  CA        10.2490  138.9650   -7.4660 C.3    85  SER85       0.1889
     11  C          8.9010  139.1120   -6.7590 C.2    85  SER85       0.2288
     12  O          8.6550  138.4630   -5.7390 O.2    85  SER85      -0.2866
     13  CB        11.2940  138.5570   -6.4080 C.3    85  SER85       0.2089
     14  OG        12.4400  137.9660   -7.0000 O.3    85  SER85      -0.2183
     15  N          6.8920  136.1120   -5.7690 N.3    88  TRP88      -0.1241
     16  CA         7.5150  135.4280   -4.6320 C.3    88  TRP88       0.1605
     17  C          6.9170  135.9790   -3.3510 C.2    88  TRP88       0.2264
     18  O          6.6450  135.2310   -2.4150 O.2    88  TRP88      -0.2867
     19  CB         9.0290  135.6350   -4.5900 C.3    88  TRP88       0.0550
     20  CG         9.7780  134.6760   -5.4600 C.ar   88  TRP88       0.0003
     21  CD1       10.4280  134.9670   -6.6260 C.ar   88  TRP88       0.0946
     22  CD2        9.9430  133.2600   -5.2430 C.ar   88  TRP88       0.0152
     23  NE1       10.9890  133.8230   -7.1510 N.ar   88  TRP88      -0.2442
     24  CE2       10.7090  132.7600   -6.3300 C.ar   88  TRP88       0.0810
     25  CE3        9.5190  132.3690   -4.2400 C.ar   88  TRP88       0.0012
     26  CZ2       11.0610  131.4050   -6.4450 C.ar   88  TRP88       0.0191
     27  CZ3        9.8740  131.0100   -4.3520 C.ar   88  TRP88       0.0001
     28  CH2       10.6370  130.5490   -5.4490 C.ar   88  TRP88       0.0015
     29  N          5.2560  133.5370   -0.7050 N.3    92  TRP92      -0.1241
     30  CA         5.7750  133.4890    0.6610 C.3    92  TRP92       0.1605
     31  C          4.6940  133.8640    1.6850 C.2    92  TRP92       0.2264
     32  O          4.5060  133.1690    2.6990 O.2    92  TRP92      -0.2867
     33  CB         6.9630  134.4480    0.8130 C.3    92  TRP92       0.0550
     34  CG         8.2090  134.0330    0.0760 C.ar   92  TRP92       0.0003
     35  CD1        8.5930  132.7570   -0.2600 C.ar   92  TRP92       0.0946
     36  CD2        9.2240  134.9040   -0.4350 C.ar   92  TRP92       0.0152
     37  NE1        9.7850  132.7890   -0.9540 N.ar   92  TRP92      -0.2442
     38  CE2       10.1900  134.0930   -1.0800 C.ar   92  TRP92       0.0810
     39  CE3        9.4100  136.2960   -0.4160 C.ar   92  TRP92       0.0012
     40  CZ2       11.3270  134.6320   -1.7080 C.ar   92  TRP92       0.0191
     41  CZ3       10.5500  136.8320   -1.0430 C.ar   92  TRP92       0.0001
     42  CH2       11.4860  135.9960   -1.6790 C.ar   92  TRP92       0.0015
     43  N         11.6990  131.3440  -11.8020 N.3   137  ALA137     -0.1245
     44  CA        11.5180  131.5360  -10.3520 C.3   137  ALA137      0.1562
     45  C         10.1530  132.1740  -10.0620 C.2   137  ALA137      0.2260
     46  O          9.3470  131.5680   -9.3500 O.2   137  ALA137     -0.2867
     47  CB        12.6870  132.3240   -9.7360 C.3   137  ALA137      0.0290
     48  N         17.9440  125.0530   -9.8380 N.3   188  ARG188     -0.1245
     49  CA        16.6690  125.6990   -9.5250 C.3   188  ARG188      0.1563
     50  C         15.7110  125.6370  -10.7140 C.2   188  ARG188      0.2260
     51  O         14.5250  125.3480  -10.5320 O.2   188  ARG188     -0.2867
     52  CB        16.8560  127.1640   -9.1340 C.3   188  ARG188      0.0307
     53  CG        17.5650  127.3950   -7.8130 C.3   188  ARG188      0.0489
     54  CD        17.8190  128.8890   -7.6130 C.3   188  ARG188      0.2205
     55  NE        18.5730  129.4430   -8.7370 N.pl3 188  ARG188     -0.0865
     56  CZ        18.4280  130.6740   -9.2290 C.cat 188  ARG188      0.5346
     57  NH1       17.5630  131.5390   -8.6950 N.pl3 188  ARG188      0.1354
     58  NH2       19.0850  131.0040  -10.3300 N.pl3 188  ARG188      0.1354
     59  N         24.7620  122.2030   -1.6830 N.3   234  HIS234     -0.1241
     60  CA        24.0570  123.2160   -0.9170 C.3   234  HIS234      0.1621
     61  C         22.6140  122.7630   -0.7250 C.2   234  HIS234      0.2264
     62  O         22.0110  122.2240   -1.6490 O.2   234  HIS234     -0.2867
     63  CB        24.0920  124.5570   -1.6600 C.3   234  HIS234      0.0745
     64  CG        23.7660  125.7280   -0.7890 C.ar  234  HIS234      0.0817
     65  ND1       22.4810  126.0070   -0.3640 N.ar  234  HIS234     -0.2268
     66  CD2       24.5660  126.6440   -0.1910 C.ar  234  HIS234      0.1154
     67  CE1       22.5090  127.0320    0.4700 C.ar  234  HIS234      0.1986
     68  NE2       23.7610  127.4370    0.5900 N.ar  234  HIS234     -0.2212
     69  N         20.0290  123.8720   -3.4850 N.3   237  TYR237     -0.1241
     70  CA        20.1150  123.1260   -4.7340 C.3   237  TYR237      0.1605
     71  C         19.8080  121.6510   -4.5510 C.2   237  TYR237      0.2264
     72  O         19.3050  121.0110   -5.4700 O.2   237  TYR237     -0.2867
     73  CB        21.4910  123.3070   -5.3750 C.3   237  TYR237      0.0534
     74  CG        21.7610  124.7290   -5.8070 C.ar  237  TYR237     -0.0201
     75  CD1       22.9230  125.3870   -5.4160 C.ar  237  TYR237     -0.0009
     76  CD2       20.8580  125.4080   -6.6290 C.ar  237  TYR237     -0.0009
     77  CE1       23.1870  126.6940   -5.8410 C.ar  237  TYR237      0.0417
     78  CE2       21.1050  126.7080   -7.0560 C.ar  237  TYR237      0.0417
     79  CZ        22.2710  127.3450   -6.6580 C.ar  237  TYR237      0.1957
     80  OH        22.5140  128.6390   -7.0590 O.3   237  TYR237     -0.2866
     81  N         20.7610  128.5720    9.8260 N.3   283  ASP283     -0.1239
     82  CA        19.8640  129.5870    9.2800 C.3   283  ASP283      0.1674
     83  C         18.4750  128.9780    9.2270 C.2   283  ASP283      0.2266
     84  O         18.2870  127.9000    8.6680 O.2   283  ASP283     -0.2867
     85  CB        20.3450  130.0070    7.8750 C.3   283  ASP283      0.1410
     86  CG        19.3960  130.9920    7.1630 C.2   283  ASP283      0.3668
     87  OD1       18.2170  131.1490    7.5570 O.co2 283  ASP283     -0.2456
     88  OD2       19.8350  131.6020    6.1660 O.co2 283  ASP283     -0.2456
     89  N         15.8620  129.4040    7.3660 N.3   285  CYS285     -0.1221
     90  CA        15.2420  129.0120    6.0970 C.3   285  CYS285      0.1808
     91  C         15.6300  127.5790    5.7130 C.2   285  CYS285      0.2601
     92  O         14.8580  126.9040    5.0330 O.2   285  CYS285     -0.2717
     93  CB        15.5580  130.0070    4.9610 C.3   285  CYS285      0.0970
     94  SG        17.2960  130.0980    4.4170 S.3   285  CYS285     -0.0800
     95  N         16.7880  127.0980    6.1850 N.am  286  TYR286     -0.1976
     96  CA        17.2090  125.7270    5.8830 C.3   286  TYR286      0.1639
     97  C         16.3680  124.7030    6.6390 C.2   286  TYR286      0.2290
     98  O         16.4640  123.5070    6.3890 O.2   286  TYR286     -0.2864
     99  CB        18.7110  125.5260    6.0980 C.3   286  TYR286      0.0560
    100  CG        19.5160  126.4440    5.2020 C.ar  286  TYR286     -0.0198
    101  CD1       20.5100  127.2780    5.7240 C.ar  286  TYR286     -0.0009
    102  CD2       19.2160  126.5390    3.8340 C.ar  286  TYR286     -0.0009
    103  CE1       21.1830  128.2000    4.9010 C.ar  286  TYR286      0.0417
    104  CE2       19.8730  127.4450    3.0060 C.ar  286  TYR286      0.0417
    105  CZ        20.8540  128.2740    3.5430 C.ar  286  TYR286      0.1957
    106  OH        21.4990  129.1580    2.7110 O.3   286  TYR286     -0.2866
    107  N         14.5730  123.9190    3.3200 N.3   289  TRP289     -0.1241
    108  CA        15.4170  123.3770    2.2580 C.3   289  TRP289      0.1605
    109  C         16.1420  122.1010    2.6380 C.2   289  TRP289      0.2264
    110  O         16.2230  121.1770    1.8230 O.2   289  TRP289     -0.2867
    111  CB        16.4180  124.4240    1.7520 C.3   289  TRP289      0.0550
    112  CG        15.7830  125.7220    1.3020 C.ar  289  TRP289      0.0003
    113  CD1       15.9700  126.9570    1.8580 C.ar  289  TRP289      0.0946
    114  CD2       14.8680  125.9100    0.2060 C.ar  289  TRP289      0.0152
    115  NE1       15.2310  127.8990    1.1790 N.ar  289  TRP289     -0.2442
    116  CE2       14.5470  127.2880    0.1610 C.ar  289  TRP289      0.0810
    117  CE3       14.2890  125.0470   -0.7430 C.ar  289  TRP289      0.0012
    118  CZ2       13.6700  127.8290   -0.7970 C.ar  289  TRP289      0.0191
    119  CZ3       13.4140  125.5860   -1.7030 C.ar  289  TRP289      0.0001
    120  CH2       13.1180  126.9680   -1.7160 C.ar  289  TRP289      0.0015
    121  N         16.3650  134.4100    9.9680 N.3   338  ASP338     -0.1239
    122  CA        17.5470  133.5760    9.7740 C.3   338  ASP338      0.1674
    123  C         18.1020  133.0830   11.1150 C.2   338  ASP338      0.2266
    124  O         18.1630  131.8720   11.3610 O.2   338  ASP338     -0.2867
    125  CB        18.5510  134.4300    8.9680 C.3   338  ASP338      0.1410
    126  CG        19.9830  133.9000    8.9620 C.2   338  ASP338      0.3668
    127  OD1       20.3460  132.9130    9.6260 O.co2 338  ASP338     -0.2456
    128  OD2       20.7890  134.5450    8.2710 O.co2 338  ASP338     -0.2456
    129  N         11.8670  138.9000    7.4960 N.3   345  ASP345     -0.1239
    130  CA        11.5570  139.1220    6.0960 C.3   345  ASP345      0.1674
    131  C         10.5790  138.0270    5.7190 C.2   345  ASP345      0.2266
    132  O         10.4610  137.0160    6.4340 O.2   345  ASP345     -0.2867
    133  CB        12.7990  139.1750    5.1910 C.3   345  ASP345      0.1410
    134  CG        13.6490  137.9270    5.2680 C.2   345  ASP345      0.3668
    135  OD1       13.1220  136.8260    5.0700 O.co2 345  ASP345     -0.2456
    136  OD2       14.8580  138.0530    5.5050 O.co2 345  ASP345     -0.2456
    137  N         10.6050  135.9380    3.1930 N.3   347  TYR347     -0.1227
    138  CA        11.2550  134.7070    2.7550 C.3   347  TYR347      0.1736
    139  C         11.5110  133.7850    3.9740 C.2   347  TYR347      0.2595
    140  O         11.1450  132.6030    3.9630 O.2   347  TYR347     -0.2718
    141  CB        12.5590  135.0480    2.0050 C.3   347  TYR347      0.0548
    142  CG        13.5230  133.8850    1.8370 C.ar  347  TYR347     -0.0200
    143  CD1       13.3730  132.9610    0.7940 C.ar  347  TYR347     -0.0009
    144  CD2       14.5840  133.7070    2.7270 C.ar  347  TYR347     -0.0009
    145  CE1       14.2660  131.8820    0.6510 C.ar  347  TYR347      0.0417
    146  CE2       15.4790  132.6350    2.5930 C.ar  347  TYR347      0.0417
    147  CZ        15.3160  131.7320    1.5580 C.ar  347  TYR347      0.1957
    148  OH        16.2150  130.6930    1.4280 O.3   347  TYR347     -0.2866
    149  N         12.0970  134.3310    5.0430 N.am  348  HIS348     -0.1975
    150  CA        12.3750  133.5220    6.2400 C.3   348  HIS348      0.1656
    151  C         11.0950  133.1530    6.9820 C.2   348  HIS348      0.2291
    152  O         11.0070  132.0790    7.5870 O.2   348  HIS348     -0.2864
    153  CB        13.3940  134.1970    7.1700 C.3   348  HIS348      0.0771
    154  CG        14.8040  134.1240    6.6650 C.ar  348  HIS348      0.0820
    155  ND1       15.3940  135.1480    5.9560 N.ar  348  HIS348     -0.2267
    156  CD2       15.7120  133.1170    6.6970 C.ar  348  HIS348      0.1154
    157  CE1       16.6010  134.7750    5.5620 C.ar  348  HIS348      0.1986
    158  NE2       16.8180  133.5480    5.9990 N.ar  348  HIS348     -0.2212
    159  N          9.8030  130.0290    4.9950 N.3   351  TYR351     -0.1241
    160  CA        10.5840  128.8150    5.1860 C.3   351  TYR351      0.1605
    161  C         10.7820  128.3150    6.6080 C.2   351  TYR351      0.2264
    162  O         10.8690  127.0970    6.8190 O.2   351  TYR351     -0.2867
    163  CB        11.8690  128.8660    4.3500 C.3   351  TYR351      0.0534
    164  CG        11.5220  128.9030    2.8700 C.ar  351  TYR351     -0.0201
    165  CD1       11.6570  130.0770    2.1330 C.ar  351  TYR351     -0.0009
    166  CD2       10.9840  127.7830    2.2260 C.ar  351  TYR351     -0.0009
    167  CE1       11.2620  130.1410    0.7860 C.ar  351  TYR351      0.0417
    168  CE2       10.5860  127.8350    0.8730 C.ar  351  TYR351      0.0417
    169  CZ        10.7310  129.0210    0.1680 C.ar  351  TYR351      0.1957
    170  OH        10.3530  129.1060   -1.1500 O.3   351  TYR351     -0.2866
@<TRIPOS>BOND
     1    43    44    1
     2    50    51    2
     3    50    49    1
     4    44    45    1
     5    44    47    1
     6    58    56    1
     7    45    46    2
     8    48    49    1
     9    49    52    1
    10    56    55    2
    11    56    57    1
    12    52    53    1
    13    55    54    1
    14     9    10    1
    15    53    54    1
    16    10    11    1
    17    10    13    1
    18    23    21   ar
    19    23    24   ar
    20    80    79    1
    21    78    79   ar
    22    78    76   ar
    23    14    13    1
    24    11    12    2
    25    79    77   ar
    26    76    74   ar
    27    21    20   ar
    28    26    24   ar
    29    26    28   ar
    30    24    22   ar
    31     4     3    2
    32    77    75   ar
    33    74    75   ar
    34    74    73    1
    35    15    16    1
    36     3     2    1
    37    72    71    2
    38    20    22   ar
    39    20    19    1
    40    28    27   ar
    41    73    70    1
    42    22    25   ar
    43    70    71    1
    44    70    69    1
    45     2     1    1
    46     2     5    1
    47    16    19    1
    48    16    17    1
    49    27    25   ar
    50     5     6    1
    51     8     6    1
    52    17    18    2
    53     6     7    1
    54   120   119   ar
    55   120   118   ar
    56    40    42   ar
    57    40    38   ar
    58   119   117   ar
    59    59    60    1
    60    42    41   ar
    61    63    60    1
    62    63    64    1
    63    62    61    2
    64   170   169    1
    65    38    37   ar
    66    38    36   ar
    67    41    39   ar
    68    37    35   ar
    69    60    61    1
    70   118   116   ar
    71    64    65   ar
    72    64    66   ar
    73   117   114   ar
    74    29    30    1
    75    36    39   ar
    76    36    34   ar
    77    65    67   ar
    78    35    34   ar
    79    66    68   ar
    80    34    33    1
    81   116   114   ar
    82   116   115   ar
    83   169   167   ar
    84   169   168   ar
    85   114   112   ar
    86    67    68   ar
    87   145   143   ar
    88   145   147   ar
    89    30    33    1
    90    30    31    1
    91   167   165   ar
    92   143   142   ar
    93   168   166   ar
    94   115   113   ar
    95   112   111    1
    96   112   113   ar
    97   148   147    1
    98   147   146   ar
    99    31    32    2
   100   111   108    1
   101   110   109    2
   102   142   141    1
   103   142   144   ar
   104   141   138    1
   105   165   164   ar
   106   166   164   ar
   107   108   109    1
   108   108   107    1
   109   146   144   ar
   110   106   105    1
   111   138   137    1
   112   138   139    1
   113   164   163    1
   114   104   105   ar
   115   104   102   ar
   116   105   103   ar
   117   102   100   ar
   118   140   139    2
   119   139   149   am
   120   163   160    1
   121    94    93    1
   122   103   101   ar
   123    93    90    1
   124   159   160    1
   125    92    91    2
   126   149   150    1
   127   135   134   ar
   128   160   161    1
   129   133   134    1
   130   133   130    1
   131   100   101   ar
   132   100    99    1
   133   134   136   ar
   134   157   155   ar
   135   157   158   ar
   136    91    90    1
   137    91    95   am
   138   131   130    1
   139   131   132    2
   140    96    99    1
   141    96    95    1
   142    96    97    1
   143   155   154   ar
   144   158   156   ar
   145   130   129    1
   146    90    89    1
   147    88    86   ar
   148   150   151    1
   149   150   153    1
   150    98    97    2
   151   161   162    2
   152   154   156   ar
   153   154   153    1
   154   151   152    2
   155    86    87   ar
   156    86    85    1
   157    85    82    1
   158   128   126   ar
   159    84    83    2
   160   126   125    1
   161   126   127   ar
   162   125   122    1
   163    83    82    1
   164    82    81    1
   165   122   121    1
   166   122   123    1
   167   123   124    2
