@<TRIPOS>MOLECULE
tmp/1s64L00.pdb
 163 158 0 0 0
SMALL
GASTEIGER

@<TRIPOS>ATOM
      1  N        -19.9740   49.7480    0.5070 N.3   104  HIS104     -0.1241
      2  CA       -19.6670   50.7090    1.5600 C.3   104  HIS104      0.1621
      3  C        -19.2260   49.8460    2.7400 C.2   104  HIS104      0.2264
      4  O        -19.9770   48.9860    3.2030 O.2   104  HIS104     -0.2867
      5  CB       -20.9080   51.5230    1.9050 C.3   104  HIS104      0.0745
      6  CG       -20.6700   52.5760    2.9370 C.ar  104  HIS104      0.0817
      7  ND1      -20.3800   52.2790    4.2520 N.ar  104  HIS104     -0.2268
      8  CD2      -20.6770   53.9250    2.8480 C.ar  104  HIS104      0.1154
      9  CE1      -20.2190   53.4010    4.9270 C.ar  104  HIS104      0.1986
     10  NE2      -20.3940   54.4140    4.0990 N.ar  104  HIS104     -0.2212
     11  N        -19.1030   50.0060    5.9370 N.3   106  ALA106     -0.1245
     12  CA       -19.9940   49.8100    7.0770 C.3   106  ALA106      0.1562
     13  C        -21.1810   48.9230    6.6910 C.2   106  ALA106      0.2260
     14  O        -21.7870   48.2640    7.5420 O.2   106  ALA106     -0.2867
     15  CB       -20.4950   51.1610    7.5960 C.3   106  ALA106      0.0290
     16  N        -19.9240   45.2850    6.4630 N.3   109  TYR109     -0.1241
     17  CA       -19.8370   44.7900    7.8270 C.3   109  TYR109      0.1605
     18  C        -21.2150   44.4250    8.3900 C.2   109  TYR109      0.2264
     19  O        -21.4280   43.2920    8.8120 O.2   109  TYR109     -0.2867
     20  CB       -19.1390   45.8350    8.7150 C.3   109  TYR109      0.0534
     21  CG       -19.4440   45.7100   10.1900 C.ar  109  TYR109     -0.0201
     22  CD1      -19.3480   44.4830   10.8450 C.ar  109  TYR109     -0.0009
     23  CD2      -19.8550   46.8160   10.9270 C.ar  109  TYR109     -0.0009
     24  CE1      -19.6610   44.3610   12.1950 C.ar  109  TYR109      0.0417
     25  CE2      -20.1680   46.7040   12.2720 C.ar  109  TYR109      0.0417
     26  CZ       -20.0750   45.4770   12.9020 C.ar  109  TYR109      0.1957
     27  OH       -20.4250   45.3720   14.2340 O.3   109  TYR109     -0.2866
     28  N        -13.2640   54.4850   12.7920 N.3   156  ARG156     -0.1231
     29  CA       -14.5420   53.8170   12.5840 C.3   156  ARG156      0.1694
     30  C        -14.4420   52.7480   11.5040 C.2   156  ARG156      0.2592
     31  O        -14.9500   51.6350   11.6640 O.2   156  ARG156     -0.2718
     32  CB       -15.6170   54.8240   12.1730 C.3   156  ARG156      0.0321
     33  CG       -16.0410   55.8030   13.2480 C.3   156  ARG156      0.0489
     34  CD       -17.0250   56.7890   12.6630 C.3   156  ARG156      0.2205
     35  NE       -16.4530   57.4870   11.5150 N.pl3 156  ARG156     -0.0865
     36  CZ       -17.1550   57.9280   10.4770 C.cat 156  ARG156      0.5346
     37  NH1      -18.4650   57.7430   10.4280 N.pl3 156  ARG156      0.1354
     38  NH2      -16.5480   58.5670    9.4920 N.pl3 156  ARG156      0.1354
     39  N        -13.7790   53.0830   10.4030 N.am  157  PHE157     -0.1976
     40  CA       -13.6670   52.1430    9.3040 C.3   157  PHE157      0.1639
     41  C        -12.5970   51.0790    9.5200 C.2   157  PHE157      0.2290
     42  O        -12.6470   50.0180    8.8970 O.2   157  PHE157     -0.2864
     43  CB       -13.4750   52.9270    8.0120 C.3   157  PHE157      0.0560
     44  CG       -14.5970   53.8910    7.7460 C.ar  157  PHE157     -0.0200
     45  CD1      -14.3670   55.1010    7.1090 C.ar  157  PHE157     -0.0042
     46  CD2      -15.8890   53.6010    8.1830 C.ar  157  PHE157     -0.0042
     47  CE1      -15.4040   56.0170    6.9150 C.ar  157  PHE157     -0.0003
     48  CE2      -16.9340   54.5080    7.9930 C.ar  157  PHE157     -0.0003
     49  CZ       -16.6860   55.7200    7.3590 C.ar  157  PHE157     -0.0000
     50  N        -12.3240   49.6350   12.3170 N.3   159  TYR159     -0.1227
     51  CA       -13.1060   48.6650   13.0720 C.3   159  TYR159      0.1736
     52  C        -13.9620   47.8210   12.1280 C.2   159  TYR159      0.2595
     53  O        -14.0810   46.6100   12.3110 O.2   159  TYR159     -0.2718
     54  CB       -14.0130   49.3790   14.0840 C.3   159  TYR159      0.0548
     55  CG       -14.9760   48.4450   14.7650 C.ar  159  TYR159     -0.0200
     56  CD1      -14.5170   47.4620   15.6390 C.ar  159  TYR159     -0.0009
     57  CD2      -16.3490   48.5270   14.5230 C.ar  159  TYR159     -0.0009
     58  CE1      -15.3960   46.5850   16.2630 C.ar  159  TYR159      0.0417
     59  CE2      -17.2450   47.6480   15.1380 C.ar  159  TYR159      0.0417
     60  CZ       -16.7610   46.6830   16.0080 C.ar  159  TYR159      0.1957
     61  OH       -17.6350   45.8220   16.6340 O.3   159  TYR159     -0.2866
     62  N        -14.5730   48.4690   11.1350 N.am  160  CYS160     -0.1970
     63  CA       -15.4030   47.7620   10.1550 C.3   160  CYS160      0.1712
     64  C        -14.5450   46.7620    9.3930 C.2   160  CYS160      0.2296
     65  O        -14.9450   45.6210    9.1970 O.2   160  CYS160     -0.2864
     66  CB       -16.0300   48.7410    9.1590 C.3   160  CYS160      0.0983
     67  SG       -17.3080   49.7970    9.8570 S.3   160  CYS160     -0.0798
     68  N         -9.9570   59.4560   16.8130 N.3   195  GLN195     -0.1245
     69  CA       -10.3120   58.9780   15.4830 C.3   195  GLN195      0.1566
     70  C         -9.0700   58.9110   14.5850 C.2   195  GLN195      0.2260
     71  O         -9.0130   58.1430   13.6270 O.2   195  GLN195     -0.2867
     72  CB       -11.3570   59.8970   14.8540 C.3   195  GLN195      0.0367
     73  CG       -12.7610   59.6960   15.3740 C.3   195  GLN195      0.0905
     74  CD       -13.2770   58.2970   15.0880 C.2   195  GLN195      0.2608
     75  OE1      -12.7820   57.6120   14.1930 O.2   195  GLN195     -0.2717
     76  NE2      -14.2860   57.8680   15.8390 N.am  195  GLN195     -0.0878
     77  N        -11.6720   59.8570   22.1490 N.3   202  HIS202     -0.1241
     78  CA       -13.1140   59.7040   22.2500 C.3   202  HIS202      0.1621
     79  C        -13.5040   58.2580   22.5710 C.2   202  HIS202      0.2264
     80  O        -12.8120   57.3130   22.1830 O.2   202  HIS202     -0.2867
     81  CB       -13.6870   60.1610   20.9020 C.3   202  HIS202      0.0745
     82  CG       -15.1780   60.1800   20.8230 C.ar  202  HIS202      0.0817
     83  ND1      -15.9210   59.0650   20.5010 N.ar  202  HIS202     -0.2268
     84  CD2      -16.0620   61.1950   20.9720 C.ar  202  HIS202      0.1154
     85  CE1      -17.2000   59.3940   20.4540 C.ar  202  HIS202      0.1986
     86  NE2      -17.3120   60.6800   20.7360 N.ar  202  HIS202     -0.2212
     87  N        -15.8750   56.4170   21.3860 N.3   204  GLY204     -0.1225
     88  CA       -16.1610   55.6160   20.2150 C.3   204  GLY204      0.1811
     89  C        -14.8940   55.1270   19.5240 C.2   204  GLY204      0.2280
     90  O        -14.7640   53.9400   19.2070 O.2   204  GLY204     -0.2866
     91  N        -13.3330   51.3950   18.9880 N.3   208  CYS208     -0.1235
     92  CA       -12.9390   50.9000   17.6820 C.3   208  CYS208      0.1677
     93  C        -11.5070   50.4040   17.6700 C.2   208  CYS208      0.2270
     94  O        -11.2210   49.3290   17.1300 O.2   208  CYS208     -0.2867
     95  CB       -13.1400   51.9800   16.6170 C.3   208  CYS208      0.0956
     96  SG       -14.8940   52.2800   16.2300 S.3   208  CYS208     -0.0801
     97  N        -24.4090   59.9190   27.3270 N.3   252  ASP252     -0.1239
     98  CA       -25.2640   59.4850   26.2370 C.3   252  ASP252      0.1674
     99  C        -25.3260   57.9640   26.3590 C.2   252  ASP252      0.2266
    100  O        -24.2950   57.2840   26.4300 O.2   252  ASP252     -0.2867
    101  CB       -24.6490   59.9190   24.8800 C.3   252  ASP252      0.1410
    102  CG       -25.2800   59.2130   23.6660 C.2   252  ASP252      0.3668
    103  OD1      -26.0530   58.2350   23.8290 O.co2 252  ASP252     -0.2456
    104  OD2      -24.9800   59.6360   22.5290 O.co2 252  ASP252     -0.2456
    105  N        -25.5790   55.4070   24.4410 N.3   254  CYS254     -0.1221
    106  CA       -24.7280   54.5340   23.6340 C.3   254  CYS254      0.1808
    107  C        -23.3180   54.3100   24.1810 C.2   254  CYS254      0.2601
    108  O        -22.6940   53.2870   23.8930 O.2   254  CYS254     -0.2717
    109  CB       -24.6580   55.0210   22.1760 C.3   254  CYS254      0.0970
    110  SG       -23.7250   56.5430   21.8260 S.3   254  CYS254     -0.0800
    111  N        -22.8070   55.2450   24.9740 N.am  255  TYR255     -0.1976
    112  CA       -21.4650   55.0600   25.5190 C.3   255  TYR255      0.1639
    113  C        -21.4180   53.9580   26.5700 C.2   255  TYR255      0.2290
    114  O        -20.3390   53.4730   26.9160 O.2   255  TYR255     -0.2864
    115  CB       -20.9110   56.3820   26.0720 C.3   255  TYR255      0.0560
    116  CG       -20.6010   57.3350   24.9480 C.ar  255  TYR255     -0.0198
    117  CD1      -19.7090   56.9660   23.9440 C.ar  255  TYR255     -0.0009
    118  CD2      -21.2900   58.5440   24.8100 C.ar  255  TYR255     -0.0009
    119  CE1      -19.5240   57.7600   22.8210 C.ar  255  TYR255      0.0417
    120  CE2      -21.1110   59.3480   23.6900 C.ar  255  TYR255      0.0417
    121  CZ       -20.2330   58.9420   22.6960 C.ar  255  TYR255      0.1957
    122  OH       -20.1110   59.6750   21.5480 O.3   255  TYR255     -0.2866
    123  N        -20.1250   51.5940   24.0200 N.3   258  TRP258     -0.1241
    124  CA       -18.8130   51.9640   23.4720 C.3   258  TRP258      0.1605
    125  C        -17.7260   51.8530   24.5360 C.2   258  TRP258      0.2264
    126  O        -16.7190   51.1640   24.3420 O.2   258  TRP258     -0.2867
    127  CB       -18.7960   53.4020   22.9280 C.3   258  TRP258      0.0550
    128  CG       -19.7300   53.6910   21.7760 C.ar  258  TRP258      0.0003
    129  CD1      -20.7740   54.5830   21.7680 C.ar  258  TRP258      0.0946
    130  CD2      -19.6760   53.1310   20.4640 C.ar  258  TRP258      0.0152
    131  NE1      -21.3690   54.6100   20.5310 N.ar  258  TRP258     -0.2442
    132  CE2      -20.7170   53.7290   19.7100 C.ar  258  TRP258      0.0810
    133  CE3      -18.8520   52.1840   19.8490 C.ar  258  TRP258      0.0012
    134  CZ2      -20.9530   53.4070   18.3710 C.ar  258  TRP258      0.0191
    135  CZ3      -19.0880   51.8610   18.5150 C.ar  258  TRP258      0.0001
    136  CH2      -20.1310   52.4740   17.7900 C.ar  258  TRP258      0.0015
    137  N        -30.7360   58.9630   23.5840 N.3   294  LYS294     -0.1245
    138  CA       -29.4280   59.1820   24.1580 C.3   294  LYS294      0.1561
    139  C        -29.5690   59.8340   25.5340 C.2   294  LYS294      0.2260
    140  O        -28.7480   59.6230   26.4230 O.2   294  LYS294     -0.2867
    141  CB       -28.5750   60.0270   23.2130 C.3   294  LYS294      0.0271
    142  CG       -29.0910   61.4120   22.9650 C.3   294  LYS294      0.0035
    143  CD       -28.8120   61.8560   21.5310 C.3   294  LYS294      0.0206
    144  CE       -27.3440   61.7810   21.1690 C.3   294  LYS294      0.1093
    145  NZ       -27.1280   62.1900   19.7450 N.3   294  LYS294     -0.1314
    146  N        -30.2800   53.0420   16.6850 N.3   303  LEU303     -0.1231
    147  CA       -28.9280   52.9470   17.2060 C.3   303  LEU303      0.1693
    148  C        -28.8680   52.9630   18.7310 C.2   303  LEU303      0.2592
    149  O        -28.2360   52.1060   19.3380 O.2   303  LEU303     -0.2718
    150  CB       -28.0650   54.0730   16.6320 C.3   303  LEU303      0.0284
    151  CG       -26.5760   54.0490   17.0110 C.3   303  LEU303      0.0019
    152  CD1      -25.7610   54.7210   15.9180 C.3   303  LEU303      0.0001
    153  CD2      -26.3660   54.7540   18.3480 C.3   303  LEU303      0.0001
    154  N        -29.5230   53.9250   19.3630 N.am  304  HIS304     -0.1976
    155  CA       -29.4790   53.9890   20.8110 C.3   304  HIS304      0.1656
    156  C        -30.2920   52.8920   21.4770 C.2   304  HIS304      0.2291
    157  O        -30.0040   52.4970   22.6110 O.2   304  HIS304     -0.2864
    158  CB       -29.8910   55.3850   21.2930 C.3   304  HIS304      0.0771
    159  CG       -28.8650   56.4350   20.9770 C.ar  304  HIS304      0.0820
    160  ND1      -28.7410   57.0030   19.7260 N.ar  304  HIS304     -0.2267
    161  CD2      -27.8340   56.9210   21.7100 C.ar  304  HIS304      0.1154
    162  CE1      -27.6780   57.7850   19.7010 C.ar  304  HIS304      0.1986
    163  NE2      -27.1090   57.7510   20.8910 N.ar  304  HIS304     -0.2212
@<TRIPOS>BOND
     1     1     2    1
     2     2     5    1
     3     2     3    1
     4     5     6    1
     5     3     4    2
     6     8     6   ar
     7     8    10   ar
     8     6     7   ar
     9    10     9   ar
    10     7     9   ar
    11    11    12    1
    12    16    17    1
    13    13    12    1
    14    13    14    2
    15    47    45   ar
    16    47    49   ar
    17    12    15    1
    18    45    44   ar
    19    49    48   ar
    20    44    43    1
    21    44    46   ar
    22    17    18    1
    23    17    20    1
    24    48    46   ar
    25    43    40    1
    26    18    19    2
    27    20    21    1
    28    42    41    2
    29    66    67    1
    30    66    63    1
    31    65    64    2
    32    40    41    1
    33    40    39    1
    34    64    63    1
    35    38    36    1
    36    63    62    1
    37    21    22   ar
    38    21    23   ar
    39    39    30   am
    40    37    36    1
    41    36    35    2
    42    22    24   ar
    43    23    25   ar
    44    62    52   am
    45    30    31    2
    46    30    29    1
    47    35    34    1
    48    52    53    2
    49    52    51    1
    50    32    29    1
    51    32    33    1
    52    24    26   ar
    53    25    26   ar
    54    50    51    1
    55    29    28    1
    56    34    33    1
    57    26    27    1
    58    51    54    1
    59    71    70    2
    60    54    55    1
    61    75    74    2
    62    57    55   ar
    63    57    59   ar
    64    70    69    1
    65    55    56   ar
    66    72    73    1
    67    72    69    1
    68    74    73    1
    69    74    76   am
    70    59    60   ar
    71    69    68    1
    72    56    58   ar
    73   152   151    1
    74    60    58   ar
    75    60    61    1
    76    96    95    1
    77    95    92    1
    78   150   151    1
    79   150   147    1
    80   146   147    1
    81   151   153    1
    82    94    93    2
    83   147   148    1
    84    93    92    1
    85    92    91    1
    86   136   134   ar
    87   136   135   ar
    88   134   132   ar
    89   135   133   ar
    90   148   149    2
    91   148   154   am
    92    90    89    2
    93   154   155    1
    94    89    88    1
    95   162   160   ar
    96   162   163   ar
    97   132   130   ar
    98   132   131   ar
    99   160   159   ar
   100   145   144    1
   101   133   130   ar
   102    88    87    1
   103    85    83   ar
   104    85    86   ar
   105   130   128   ar
   106    83    82   ar
   107   131   129   ar
   108    86    84   ar
   109   155   158    1
   110   155   156    1
   111    82    81    1
   112    82    84   ar
   113   163   161   ar
   114    81    78    1
   115   159   158    1
   116   159   161   ar
   117   144   143    1
   118   156   157    2
   119   143   142    1
   120   122   121    1
   121   129   128   ar
   122   128   127    1
   123   110   109    1
   124    77    78    1
   125   109   106    1
   126    80    79    2
   127    78    79    1
   128   104   102   ar
   129   121   119   ar
   130   121   120   ar
   131   119   117   ar
   132   127   124    1
   133   142   141    1
   134   141   138    1
   135   124   123    1
   136   124   125    1
   137   137   138    1
   138   106   107    1
   139   106   105    1
   140   102   103   ar
   141   102   101    1
   142   120   118   ar
   143   108   107    2
   144   117   116   ar
   145   138   139    1
   146   107   111   am
   147   126   125    2
   148   118   116   ar
   149   101    98    1
   150   116   115    1
   151   111   112    1
   152   112   115    1
   153   112   113    1
   154   139   140    2
   155    98    99    1
   156    98    97    1
   157    99   100    2
   158   113   114    2
