@<TRIPOS>MOLECULE
tmp/1s64L01.pdb
 134 131 0 0 0
SMALL
GASTEIGER

@<TRIPOS>ATOM
      1  N        -28.1840   54.0200    4.2130 N.3    29  SER29      -0.1217
      2  CA       -27.6890   53.1540    5.2690 C.3    29  SER29       0.1889
      3  C        -28.8170   52.3780    5.9430 C.2    29  SER29       0.2288
      4  O        -28.8000   52.1400    7.1560 O.2    29  SER29      -0.2866
      5  CB       -26.8490   53.9450    6.2940 C.3    29  SER29       0.2089
      6  OG       -27.4960   55.1060    6.7450 O.3    29  SER29      -0.2183
      7  N        -27.8120   49.2190    7.8770 N.3    32  THR32      -0.1203
      8  CA       -27.3570   49.2900    9.2630 C.3    32  THR32       0.1994
      9  C        -28.5560   49.4390   10.1960 C.2    32  THR32       0.2617
     10  O        -28.4870   49.0500   11.3590 O.2    32  THR32      -0.2717
     11  CB       -26.3690   50.4560    9.5100 C.3    32  THR32       0.1784
     12  OG1      -27.0640   51.7040    9.4190 O.3    32  THR32      -0.2211
     13  CG2      -25.2440   50.4280    8.4870 C.3    32  THR32       0.0376
     14  N        -29.6530   50.0080    9.6980 N.am   33  ILE33      -0.1979
     15  CA       -30.8530   50.1320   10.5190 C.3    33  ILE33       0.1595
     16  C        -31.4270   48.7250   10.6860 C.2    33  ILE33       0.2287
     17  O        -31.9300   48.3710   11.7510 O.2    33  ILE33      -0.2864
     18  CB       -31.9280   51.0120    9.8660 C.3    33  ILE33       0.0276
     19  CG1      -31.4230   52.4440    9.7280 C.3    33  ILE33       0.0022
     20  CG2      -33.1970   50.9800   10.7110 C.3    33  ILE33       0.0022
     21  CD1      -31.0400   53.0900   11.0520 C.3    33  ILE33       0.0001
     22  N        -29.6920   46.0520   10.7000 N.3    35  PHE35      -0.1227
     23  CA       -28.7750   45.4210   11.6450 C.3    35  PHE35       0.1736
     24  C        -29.1530   45.7270   13.1050 C.2    35  PHE35       0.2595
     25  O        -29.2110   44.8270   13.9380 O.2    35  PHE35      -0.2718
     26  CB       -27.3470   45.8960   11.3880 C.3    35  PHE35       0.0547
     27  CG       -26.3920   45.5190   12.4690 C.ar   35  PHE35      -0.0202
     28  CD1      -25.9320   44.2080   12.5800 C.ar   35  PHE35      -0.0042
     29  CD2      -26.0080   46.4560   13.4270 C.ar   35  PHE35      -0.0042
     30  CE1      -25.1100   43.8310   13.6330 C.ar   35  PHE35      -0.0003
     31  CE2      -25.1860   46.0900   14.4850 C.ar   35  PHE35      -0.0003
     32  CZ       -24.7370   44.7720   14.5880 C.ar   35  PHE35      -0.0000
     33  N        -29.4070   46.9930   13.4150 N.am   36  PHE36      -0.1976
     34  CA       -29.7670   47.3570   14.7750 C.3    36  PHE36       0.1639
     35  C        -31.0410   46.6390   15.1930 C.2    36  PHE36       0.2290
     36  O        -31.1710   46.1870   16.3340 O.2    36  PHE36      -0.2864
     37  CB       -29.9820   48.8680   14.8910 C.3    36  PHE36       0.0560
     38  CG       -28.7180   49.6800   14.7610 C.ar   36  PHE36      -0.0200
     39  CD1      -28.7410   50.9360   14.1490 C.ar   36  PHE36      -0.0042
     40  CD2      -27.5060   49.2010   15.2490 C.ar   36  PHE36      -0.0042
     41  CE1      -27.5760   51.6970   14.0230 C.ar   36  PHE36      -0.0003
     42  CE2      -26.3380   49.9590   15.1250 C.ar   36  PHE36      -0.0003
     43  CZ       -26.3760   51.2030   14.5120 C.ar   36  PHE36      -0.0000
     44  N        -19.1030   50.0060    5.9370 N.3   106  ALA106     -0.1231
     45  CA       -19.9940   49.8100    7.0770 C.3   106  ALA106      0.1694
     46  C        -21.1810   48.9230    6.6910 C.2   106  ALA106      0.2591
     47  O        -21.7870   48.2640    7.5420 O.2   106  ALA106     -0.2718
     48  CB       -20.4950   51.1610    7.5960 C.3   106  ALA106      0.0304
     49  N        -21.5170   48.9090    5.4070 N.am  107  MET107     -0.1979
     50  CA       -22.6250   48.0880    4.9410 C.3   107  MET107      0.1605
     51  C        -22.1480   46.6560    4.7490 C.2   107  MET107      0.2287
     52  O        -22.8740   45.7080    5.0320 O.2   107  MET107     -0.2864
     53  CB       -23.1830   48.6450    3.6350 C.3   107  MET107      0.0413
     54  CG       -23.5970   50.1060    3.7340 C.3   107  MET107      0.0598
     55  SD       -24.6500   50.4530    5.1870 S.3   107  MET107     -0.1393
     56  CE       -24.1880   52.1550    5.5120 C.3   107  MET107      0.0692
     57  N        -19.9240   45.2850    6.4630 N.3   109  TYR109     -0.1227
     58  CA       -19.8370   44.7900    7.8270 C.3   109  TYR109      0.1736
     59  C        -21.2150   44.4250    8.3900 C.2   109  TYR109      0.2596
     60  O        -21.4280   43.2920    8.8120 O.2   109  TYR109     -0.2718
     61  CB       -19.1390   45.8350    8.7150 C.3   109  TYR109      0.0548
     62  CG       -19.4440   45.7100   10.1900 C.ar  109  TYR109     -0.0200
     63  CD1      -19.3480   44.4830   10.8450 C.ar  109  TYR109     -0.0009
     64  CD2      -19.8550   46.8160   10.9270 C.ar  109  TYR109     -0.0009
     65  CE1      -19.6610   44.3610   12.1950 C.ar  109  TYR109      0.0417
     66  CE2      -20.1680   46.7040   12.2720 C.ar  109  TYR109      0.0417
     67  CZ       -20.0750   45.4770   12.9020 C.ar  109  TYR109      0.1957
     68  OH       -20.4250   45.3720   14.2340 O.3   109  TYR109     -0.2866
     69  N        -22.1490   45.3710    8.4030 N.am  110  THR110     -0.1953
     70  CA       -23.4750   45.0800    8.9330 C.3   110  THR110      0.1897
     71  C        -24.2140   44.0590    8.0730 C.2   110  THR110      0.2313
     72  O        -25.0570   43.3160    8.5790 O.2   110  THR110     -0.2863
     73  CB       -24.3450   46.3560    9.0680 C.3   110  THR110      0.1794
     74  OG1      -24.3060   47.1060    7.8520 O.3   110  THR110     -0.2208
     75  CG2      -23.8440   47.2160   10.2070 C.3   110  THR110      0.0378
     76  N        -12.3240   49.6350   12.3170 N.3   159  TYR159     -0.1227
     77  CA       -13.1060   48.6650   13.0720 C.3   159  TYR159      0.1736
     78  C        -13.9620   47.8210   12.1280 C.2   159  TYR159      0.2595
     79  O        -14.0810   46.6100   12.3110 O.2   159  TYR159     -0.2718
     80  CB       -14.0130   49.3790   14.0840 C.3   159  TYR159      0.0548
     81  CG       -14.9760   48.4450   14.7650 C.ar  159  TYR159     -0.0200
     82  CD1      -14.5170   47.4620   15.6390 C.ar  159  TYR159     -0.0009
     83  CD2      -16.3490   48.5270   14.5230 C.ar  159  TYR159     -0.0009
     84  CE1      -15.3960   46.5850   16.2630 C.ar  159  TYR159      0.0417
     85  CE2      -17.2450   47.6480   15.1380 C.ar  159  TYR159      0.0417
     86  CZ       -16.7610   46.6830   16.0080 C.ar  159  TYR159      0.1957
     87  OH       -17.6350   45.8220   16.6340 O.3   159  TYR159     -0.2866
     88  N        -14.5730   48.4690   11.1350 N.am  160  CYS160     -0.1970
     89  CA       -15.4030   47.7620   10.1550 C.3   160  CYS160      0.1712
     90  C        -14.5450   46.7620    9.3930 C.2   160  CYS160      0.2296
     91  O        -14.9450   45.6210    9.1970 O.2   160  CYS160     -0.2864
     92  CB       -16.0300   48.7410    9.1590 C.3   160  CYS160      0.0983
     93  SG       -17.3080   49.7970    9.8570 S.3   160  CYS160     -0.0798
     94  N        -20.1250   51.5940   24.0200 N.3   258  TRP258     -0.1241
     95  CA       -18.8130   51.9640   23.4720 C.3   258  TRP258      0.1605
     96  C        -17.7260   51.8530   24.5360 C.2   258  TRP258      0.2264
     97  O        -16.7190   51.1640   24.3420 O.2   258  TRP258     -0.2867
     98  CB       -18.7960   53.4020   22.9280 C.3   258  TRP258      0.0550
     99  CG       -19.7300   53.6910   21.7760 C.ar  258  TRP258      0.0003
    100  CD1      -20.7740   54.5830   21.7680 C.ar  258  TRP258      0.0946
    101  CD2      -19.6760   53.1310   20.4640 C.ar  258  TRP258      0.0152
    102  NE1      -21.3690   54.6100   20.5310 N.ar  258  TRP258     -0.2442
    103  CE2      -20.7170   53.7290   19.7100 C.ar  258  TRP258      0.0810
    104  CE3      -18.8520   52.1840   19.8490 C.ar  258  TRP258      0.0012
    105  CZ2      -20.9530   53.4070   18.3710 C.ar  258  TRP258      0.0191
    106  CZ3      -19.0880   51.8610   18.5150 C.ar  258  TRP258      0.0001
    107  CH2      -20.1310   52.4740   17.7900 C.ar  258  TRP258      0.0015
    108  N        -30.2800   53.0420   16.6850 N.3   303  LEU303     -0.1245
    109  CA       -28.9280   52.9470   17.2060 C.3   303  LEU303      0.1561
    110  C        -28.8680   52.9630   18.7310 C.2   303  LEU303      0.2260
    111  O        -28.2360   52.1060   19.3380 O.2   303  LEU303     -0.2867
    112  CB       -28.0650   54.0730   16.6320 C.3   303  LEU303      0.0270
    113  CG       -26.5760   54.0490   17.0110 C.3   303  LEU303      0.0019
    114  CD1      -25.7610   54.7210   15.9180 C.3   303  LEU303      0.0001
    115  CD2      -26.3660   54.7540   18.3480 C.3   303  LEU303      0.0001
    116  N        -27.7520   49.9040   21.2070 N.3   307  PHE307     -0.1241
    117  CA       -26.6200   50.0500   22.1030 C.3   307  PHE307      0.1605
    118  C        -27.0560   50.1080   23.5570 C.2   307  PHE307      0.2264
    119  O        -26.3260   49.6650   24.4380 O.2   307  PHE307     -0.2867
    120  CB       -25.7660   51.2700   21.7280 C.3   307  PHE307      0.0534
    121  CG       -24.9180   51.0510   20.4980 C.ar  307  PHE307     -0.0203
    122  CD1      -25.2530   51.6260   19.2820 C.ar  307  PHE307     -0.0042
    123  CD2      -23.8230   50.2050   20.5410 C.ar  307  PHE307     -0.0042
    124  CE1      -24.5120   51.3560   18.1320 C.ar  307  PHE307     -0.0003
    125  CE2      -23.0770   49.9320   19.3880 C.ar  307  PHE307     -0.0003
    126  CZ       -23.4250   50.5090   18.1870 C.ar  307  PHE307     -0.0000
    127  N        -19.6780   42.9820   18.6300 N.3   328  ASN328     -0.1240
    128  CA       -20.9320   43.7010   18.7610 C.3   328  ASN328      0.1653
    129  C        -22.1790   42.9430   18.2750 C.2   328  ASN328      0.2266
    130  O        -23.0670   43.5100   17.6470 O.2   328  ASN328     -0.2867
    131  CB       -20.7820   45.0500   18.0570 C.3   328  ASN328      0.1155
    132  CG       -21.9380   45.9870   18.3210 C.2   328  ASN328      0.2627
    133  OD1      -22.5110   46.0080   19.4140 O.2   328  ASN328     -0.2716
    134  ND2      -22.2780   46.7910   17.3140 N.am  328  ASN328     -0.0877
@<TRIPOS>BOND
     1    53    54    1
     2    53    50    1
     3    54    55    1
     4     1     2    1
     5    51    50    1
     6    51    52    2
     7    50    49    1
     8    55    56    1
     9     2     3    1
    10     2     5    1
    11    49    46   am
    12    44    45    1
    13     3     4    2
    14     5     6    1
    15    57    58    1
    16    46    45    1
    17    46    47    2
    18    45    48    1
    19    58    59    1
    20    58    61    1
    21    74    73    1
    22     7     8    1
    23    71    72    2
    24    71    70    1
    25    59    69   am
    26    59    60    2
    27    69    70    1
    28    13    11    1
    29    61    62    1
    30    70    73    1
    31    73    75    1
    32    92    93    1
    33    92    89    1
    34    91    90    2
    35     8    11    1
    36     8     9    1
    37    90    89    1
    38    12    11    1
    39    14     9   am
    40    14    15    1
    41    19    18    1
    42    19    21    1
    43    18    15    1
    44    18    20    1
    45    89    88    1
    46    62    63   ar
    47    62    64   ar
    48     9    10    2
    49    15    16    1
    50    16    17    2
    51    22    23    1
    52    63    65   ar
    53    64    66   ar
    54    88    78   am
    55    26    23    1
    56    26    27    1
    57    23    24    1
    58    78    79    2
    59    78    77    1
    60    65    67   ar
    61    66    67   ar
    62    76    77    1
    63    27    28   ar
    64    27    29   ar
    65    28    30   ar
    66    67    68    1
    67    77    80    1
    68    24    33   am
    69    24    25    2
    70    33    34    1
    71    29    31   ar
    72    30    32   ar
    73    41    39   ar
    74    41    43   ar
    75    80    81    1
    76    39    38   ar
    77    31    32   ar
    78    43    42   ar
    79    83    81   ar
    80    83    85   ar
    81    38    37    1
    82    38    40   ar
    83    81    82   ar
    84    34    37    1
    85    34    35    1
    86    42    40   ar
    87    85    86   ar
    88    35    36    2
    89    82    84   ar
    90   114   113    1
    91    86    84   ar
    92    86    87    1
    93   112   113    1
    94   112   109    1
    95   108   109    1
    96   113   115    1
    97   109   110    1
    98   134   132   am
    99   130   129    2
   100   107   105   ar
   101   107   106   ar
   102   131   132    1
   103   131   128    1
   104   124   126   ar
   105   124   122   ar
   106   126   125   ar
   107   129   128    1
   108   132   133    2
   109   105   103   ar
   110   106   104   ar
   111   127   128    1
   112   110   111    2
   113   122   121   ar
   114   125   123   ar
   115   103   101   ar
   116   103   102   ar
   117   104   101   ar
   118   101    99   ar
   119   121   123   ar
   120   121   120    1
   121   102   100   ar
   122   116   117    1
   123   120   117    1
   124   100    99   ar
   125    99    98    1
   126   117   118    1
   127    98    95    1
   128    95    94    1
   129    95    96    1
   130   118   119    2
   131    97    96    2
