@<TRIPOS>MOLECULE
tmp/1s66A00.pdb
 200 192 0 0 0
SMALL
GASTEIGER

@<TRIPOS>ATOM
      1  N         33.0150   34.4890   39.9770 N.3    19  VAL19      -0.1245
      2  CA        33.6840   33.4680   39.1790 C.3    19  VAL19       0.1561
      3  C         34.9870   33.0540   39.8570 C.2    19  VAL19       0.2260
      4  O         35.9870   33.7640   39.7760 O.2    19  VAL19      -0.2867
      5  CB        33.9810   33.9850   37.7500 C.3    19  VAL19       0.0252
      6  CG1       34.5770   32.8770   36.8860 C.3    19  VAL19       0.0019
      7  CG2       32.7150   34.5460   37.1090 C.3    19  VAL19       0.0019
      8  N         38.1620   30.3840   40.1950 N.3    21  ILE21      -0.1245
      9  CA        38.9450   29.4100   39.4320 C.3    21  ILE21       0.1561
     10  C         40.0190   28.7760   40.3190 C.2    21  ILE21       0.2260
     11  O         40.5890   29.4410   41.1810 O.2    21  ILE21      -0.2867
     12  CB        39.5850   30.0610   38.1730 C.3    21  ILE21       0.0252
     13  CG1       40.4610   31.2650   38.5390 C.3    21  ILE21       0.0019
     14  CG2       38.5080   30.4880   37.1880 C.3    21  ILE21       0.0019
     15  CD1       41.3390   31.7470   37.3970 C.3    21  ILE21       0.0001
     16  N         26.9940   37.2190   31.7590 N.3    38  TRP38      -0.1241
     17  CA        27.6450   36.5400   30.6370 C.3    38  TRP38       0.1605
     18  C         26.6500   35.8830   29.6800 C.2    38  TRP38       0.2264
     19  O         26.9680   35.6650   28.5140 O.2    38  TRP38      -0.2867
     20  CB        28.6260   35.4780   31.1540 C.3    38  TRP38       0.0550
     21  CG        30.0330   35.9670   31.2610 C.ar   38  TRP38       0.0003
     22  CD1       30.9100   36.1650   30.2360 C.ar   38  TRP38       0.0946
     23  CD2       30.7310   36.3250   32.4600 C.ar   38  TRP38       0.0152
     24  NE1       32.1110   36.6230   30.7210 N.ar   38  TRP38      -0.2442
     25  CE2       32.0300   36.7300   32.0850 C.ar   38  TRP38       0.0810
     26  CE3       30.3910   36.3450   33.8200 C.ar   38  TRP38       0.0012
     27  CZ2       32.9850   37.1500   33.0150 C.ar   38  TRP38       0.0191
     28  CZ3       31.3410   36.7610   34.7430 C.ar   38  TRP38       0.0001
     29  CH2       32.6220   37.1570   34.3350 C.ar   38  TRP38       0.0015
     30  N         39.2630   29.0710   31.9250 N.3    50  ILE50      -0.1245
     31  CA        38.8860   30.4700   32.1520 C.3    50  ILE50       0.1561
     32  C         38.7570   31.2840   30.8580 C.2    50  ILE50       0.2260
     33  O         38.0530   32.2920   30.8280 O.2    50  ILE50      -0.2867
     34  CB        39.8980   31.1570   33.1310 C.3    50  ILE50       0.0252
     35  CG1       39.4420   32.5700   33.5280 C.3    50  ILE50       0.0019
     36  CG2       41.2990   31.2500   32.5150 C.3    50  ILE50       0.0019
     37  CD1       38.0200   32.6680   34.0510 C.3    50  ILE50       0.0001
     38  N         35.3150   32.6100   29.1990 N.3    53  LEU53      -0.1231
     39  CA        34.6930   33.8220   29.7380 C.3    53  LEU53       0.1693
     40  C         35.4400   35.1040   29.3560 C.2    53  LEU53       0.2592
     41  O         34.9700   36.2010   29.6480 O.2    53  LEU53      -0.2718
     42  CB        34.5950   33.7330   31.2640 C.3    53  LEU53       0.0284
     43  CG        33.8420   32.5300   31.8380 C.3    53  LEU53       0.0019
     44  CD1       33.9750   32.5030   33.3500 C.3    53  LEU53       0.0001
     45  CD2       32.3760   32.5560   31.4290 C.3    53  LEU53       0.0001
     46  N         36.6010   34.9690   28.7190 N.am   54  ILE54      -0.1966
     47  CA        37.3630   36.1220   28.2400 C.3    54  ILE54       0.1712
     48  C         36.8740   36.4710   26.8310 C.2    54  ILE54       0.2458
     49  O         36.5560   35.5680   26.0560 O.2    54  ILE54      -0.2730
     50  CB        38.8850   35.8000   28.2220 C.3    54  ILE54       0.0289
     51  CG1       39.3610   35.2850   29.5890 C.3    54  ILE54       0.0022
     52  CG2       39.7040   37.0210   27.8120 C.3    54  ILE54       0.0023
     53  CD1       39.1290   36.2400   30.7550 C.3    54  ILE54       0.0001
     54  N         36.7790   37.7620   26.4980 N.am   55  PRO55      -0.2727
     55  CA        36.4900   38.1790   25.1170 C.3    55  PRO55       0.1402
     56  C         37.4880   37.6100   24.1040 C.2    55  PRO55       0.2269
     57  O         38.6250   37.3130   24.4720 O.2    55  PRO55      -0.2865
     58  CB        36.6020   39.7060   25.1820 C.3    55  PRO55       0.0296
     59  CG        36.3220   40.0480   26.5960 C.3    55  PRO55       0.0237
     60  CD        36.8900   38.9220   27.4030 C.3    55  PRO55       0.0939
     61  N         40.6860   39.5940   23.5130 N.3    58  LEU58      -0.1245
     62  CA        41.5670   39.5940   24.6830 C.3    58  LEU58       0.1561
     63  C         42.0730   38.1910   25.0450 C.2    58  LEU58       0.2260
     64  O         42.7990   38.0330   26.0260 O.2    58  LEU58      -0.2867
     65  CB        40.8440   40.2110   25.8940 C.3    58  LEU58       0.0270
     66  CG        41.5040   41.3310   26.7250 C.3    58  LEU58       0.0019
     67  CD1       41.4330   41.0050   28.2140 C.3    58  LEU58       0.0001
     68  CD2       42.9490   41.6380   26.3380 C.3    58  LEU58       0.0001
     69  N         45.3810   37.1790   27.7180 N.3    62  HIS62      -0.1241
     70  CA        44.9230   36.8630   29.0760 C.3    62  HIS62       0.1621
     71  C         45.6110   35.6780   29.7660 C.2    62  HIS62       0.2264
     72  O         45.8300   35.7330   30.9750 O.2    62  HIS62      -0.2867
     73  CB        43.4030   36.6790   29.1260 C.3    62  HIS62       0.0745
     74  CG        42.8170   36.9780   30.4700 C.ar   62  HIS62       0.0817
     75  ND1       42.8500   36.0770   31.5110 N.ar   62  HIS62      -0.2268
     76  CD2       42.2110   38.0890   30.9520 C.ar   62  HIS62       0.1154
     77  CE1       42.2760   36.6140   32.5730 C.ar   62  HIS62       0.1986
     78  NE2       41.8790   37.8340   32.2600 N.ar   62  HIS62      -0.2212
     79  N         48.6690   36.9590   31.4490 N.3    65  TYR65      -0.1227
     80  CA        48.3940   37.7640   32.6440 C.3    65  TYR65       0.1736
     81  C         48.2550   36.8940   33.8940 C.2    65  TYR65       0.2595
     82  O         48.7730   37.2430   34.9560 O.2    65  TYR65      -0.2718
     83  CB        47.1150   38.5950   32.4720 C.3    65  TYR65       0.0548
     84  CG        47.1310   39.6130   31.3440 C.ar   65  TYR65      -0.0200
     85  CD1       48.3120   40.2350   30.9360 C.ar   65  TYR65      -0.0009
     86  CD2       45.9500   39.9650   30.6940 C.ar   65  TYR65      -0.0009
     87  CE1       48.3130   41.1690   29.9060 C.ar   65  TYR65       0.0417
     88  CE2       45.9430   40.8970   29.6650 C.ar   65  TYR65       0.0417
     89  CZ        47.1260   41.4950   29.2760 C.ar   65  TYR65       0.1957
     90  OH        47.1230   42.4190   28.2570 O.3    65  TYR65      -0.2866
     91  N         47.5520   35.7700   33.7620 N.am   66  ILE66      -0.1980
     92  CA        47.3180   34.8610   34.8860 C.3    66  ILE66       0.1595
     93  C         48.6010   34.1290   35.2690 C.2    66  ILE66       0.2287
     94  O         48.8930   33.9650   36.4520 O.2    66  ILE66      -0.2864
     95  CB        46.2020   33.8340   34.5510 C.3    66  ILE66       0.0276
     96  CG1       44.8750   34.5500   34.2690 C.3    66  ILE66       0.0022
     97  CG2       46.0280   32.8290   35.6980 C.3    66  ILE66       0.0022
     98  CD1       43.7170   33.6120   33.9770 C.3    66  ILE66       0.0001
     99  N         51.7490   35.0280   34.9100 N.3    68  HIS68      -0.1226
    100  CA        52.7110   35.9250   35.5520 C.3    68  HIS68       0.1752
    101  C         52.3860   36.1510   37.0300 C.2    68  HIS68       0.2596
    102  O         53.2880   36.1950   37.8680 O.2    68  HIS68      -0.2718
    103  CB        52.7560   37.2700   34.8170 C.3    68  HIS68       0.0759
    104  CG        53.5660   38.3180   35.5170 C.ar   68  HIS68       0.0818
    105  ND1       52.9940   39.3950   36.1580 N.ar   68  HIS68      -0.2268
    106  CD2       54.9040   38.4530   35.6760 C.ar   68  HIS68       0.1154
    107  CE1       53.9440   40.1500   36.6800 C.ar   68  HIS68       0.1986
    108  NE2       55.1120   39.6020   36.3990 N.ar   68  HIS68      -0.2212
    109  N         51.0980   36.2920   37.3390 N.am   69  ASN69      -0.1974
    110  CA        50.6460   36.5170   38.7130 C.3    69  ASN69       0.1688
    111  C         50.8340   35.2910   39.6130 C.2    69  ASN69       0.2292
    112  O         50.9690   35.4260   40.8300 O.2    69  ASN69      -0.2864
    113  CB        49.1770   36.9560   38.7260 C.3    69  ASN69       0.1181
    114  CG        48.8030   37.7110   39.9880 C.2    69  ASN69       0.2629
    115  OD1       48.9940   38.9240   40.0780 O.2    69  ASN69      -0.2716
    116  ND2       48.2670   36.9960   40.9700 N.am   69  ASN69      -0.0877
    117  N         44.8860   41.9770   44.3160 N.3    79  GLY79      -0.1210
    118  CA        44.8620   42.4090   42.9290 C.3    79  GLY79       0.1956
    119  C         44.4470   43.8550   42.7180 C.2    79  GLY79       0.2611
    120  O         45.1600   44.7750   43.1220 O.2    79  GLY79      -0.2717
    121  N         43.2900   44.0510   42.0870 N.am   80  MET80      -0.1979
    122  CA        42.8720   45.3770   41.6240 C.3    80  MET80       0.1605
    123  C         41.3690   45.4790   41.3390 C.2    80  MET80       0.2287
    124  O         40.6630   44.4700   41.2760 O.2    80  MET80      -0.2864
    125  CB        43.6440   45.7340   40.3500 C.3    80  MET80       0.0413
    126  CG        43.4340   44.7460   39.2010 C.3    80  MET80       0.0598
    127  SD        44.8670   44.5770   38.1190 S.3    80  MET80      -0.1393
    128  CE        44.8500   46.1580   37.2950 C.3    80  MET80       0.0692
    129  N         38.8270   47.6460   38.5330 N.3    82  ARG82      -0.1245
    130  CA        38.7200   48.5190   37.3590 C.3    82  ARG82       0.1563
    131  C         37.5990   48.0750   36.4130 C.2    82  ARG82       0.2260
    132  O         37.0250   47.0000   36.5790 O.2    82  ARG82      -0.2867
    133  CB        40.0570   48.5850   36.6050 C.3    82  ARG82       0.0307
    134  CG        40.4390   47.3240   35.8270 C.3    82  ARG82       0.0489
    135  CD        40.6980   46.1000   36.6960 C.3    82  ARG82       0.2205
    136  NE        41.3410   45.0200   35.9470 N.pl3  82  ARG82      -0.0865
    137  CZ        41.3380   43.7310   36.2990 C.cat  82  ARG82       0.5346
    138  NH1       41.9590   42.8430   35.5320 N.pl3  82  ARG82       0.1354
    139  NH2       40.7190   43.3160   37.4040 N.pl3  82  ARG82       0.1354
    140  N         36.0500   46.7870   32.8980 N.3    84  LEU84      -0.1231
    141  CA        36.4370   45.9360   31.7680 C.3    84  LEU84       0.1693
    142  C         35.2490   45.6160   30.8600 C.2    84  LEU84       0.2592
    143  O         34.1190   45.4860   31.3290 O.2    84  LEU84      -0.2718
    144  CB        37.0290   44.6220   32.2800 C.3    84  LEU84       0.0284
    145  CG        38.2100   44.7170   33.2470 C.3    84  LEU84       0.0019
    146  CD1       38.4910   43.3520   33.8490 C.3    84  LEU84       0.0001
    147  CD2       39.4420   45.2640   32.5430 C.3    84  LEU84       0.0001
    148  N         35.5160   45.4700   29.5630 N.am   85  GLN85      -0.1966
    149  CA        34.4740   45.1520   28.5880 C.3    85  GLN85       0.1733
    150  C         34.2050   43.6440   28.5310 C.2    85  GLN85       0.2616
    151  O         34.9670   42.8850   27.9280 O.2    85  GLN85      -0.2715
    152  CB        34.8510   45.6840   27.2010 C.3    85  GLN85       0.0408
    153  CG        33.6600   45.8580   26.2680 C.3    85  GLN85       0.0908
    154  CD        34.0400   46.4850   24.9400 C.2    85  GLN85       0.2608
    155  OE1       35.0680   46.1400   24.3560 O.2    85  GLN85      -0.2717
    156  NE2       33.2110   47.4060   24.4580 N.am   85  GLN85      -0.0878
    157  N         33.1180   43.2270   29.1760 N.am   86  LEU86      -0.1977
    158  CA        32.6840   41.8310   29.1830 C.3    86  LEU86       0.1596
    159  C         32.0400   41.4500   27.8510 C.2    86  LEU86       0.2287
    160  O         31.2560   42.2210   27.2970 O.2    86  LEU86      -0.2864
    161  CB        31.6820   41.6130   30.3220 C.3    86  LEU86       0.0297
    162  CG        31.2810   40.1770   30.6780 C.3    86  LEU86       0.0022
    163  CD1       31.1350   40.0330   32.1900 C.3    86  LEU86       0.0001
    164  CD2       29.9910   39.7610   29.9780 C.3    86  LEU86       0.0001
    165  N         34.9080   44.9540   37.5320 N.3    98  PHE98      -0.1241
    166  CA        35.4990   43.7840   38.1810 C.3    98  PHE98       0.1605
    167  C         36.2090   44.1530   39.4850 C.2    98  PHE98       0.2264
    168  O         36.5530   45.3150   39.7150 O.2    98  PHE98      -0.2867
    169  CB        36.4850   43.0870   37.2360 C.3    98  PHE98       0.0534
    170  CG        35.8330   42.1210   36.2850 C.ar   98  PHE98      -0.0203
    171  CD1       36.1310   40.7660   36.3390 C.ar   98  PHE98      -0.0042
    172  CD2       34.9220   42.5670   35.3360 C.ar   98  PHE98      -0.0042
    173  CE1       35.5330   39.8700   35.4630 C.ar   98  PHE98      -0.0003
    174  CE2       34.3200   41.6760   34.4570 C.ar   98  PHE98      -0.0003
    175  CZ        34.6260   40.3260   34.5210 C.ar   98  PHE98      -0.0000
    176  N         38.9950   41.7990   41.1970 N.3   100  LEU100     -0.1245
    177  CA        39.7790   40.5670   41.2870 C.3   100  LEU100      0.1561
    178  C         40.4750   40.4240   42.6400 C.2   100  LEU100      0.2260
    179  O         40.9370   41.4110   43.2140 O.2   100  LEU100     -0.2867
    180  CB        40.8180   40.5350   40.1630 C.3   100  LEU100      0.0270
    181  CG        41.6040   39.2370   39.9660 C.3   100  LEU100      0.0019
    182  CD1       40.6930   38.1150   39.4910 C.3   100  LEU100      0.0001
    183  CD2       42.7430   39.4570   38.9840 C.3   100  LEU100      0.0001
    184  N         41.3580   32.4420   42.2950 N.3   111  TYR111     -0.1241
    185  CA        41.0340   33.8270   41.9310 C.3   111  TYR111      0.1605
    186  C         39.5200   34.0420   41.8600 C.2   111  TYR111      0.2264
    187  O         38.8390   33.3750   41.0870 O.2   111  TYR111     -0.2867
    188  CB        41.6390   34.1870   40.5700 C.3   111  TYR111      0.0534
    189  CG        43.1500   34.2720   40.5410 C.ar  111  TYR111     -0.0201
    190  CD1       43.9100   33.2910   39.9080 C.ar  111  TYR111     -0.0009
    191  CD2       43.8200   35.3390   41.1350 C.ar  111  TYR111     -0.0009
    192  CE1       45.2950   33.3670   39.8720 C.ar  111  TYR111      0.0417
    193  CE2       45.2080   35.4230   41.1030 C.ar  111  TYR111      0.0417
    194  CZ        45.9390   34.4320   40.4700 C.ar  111  TYR111      0.1957
    195  OH        47.3120   34.5020   40.4310 O.3   111  TYR111     -0.2866
    196  N         36.6430   36.8010   40.9410 N.3   113  ALA113     -0.1245
    197  CA        36.3380   38.0670   40.2770 C.3   113  ALA113      0.1562
    198  C         34.8880   38.4710   40.5380 C.2   113  ALA113      0.2260
    199  O         33.9620   37.8310   40.0350 O.2   113  ALA113     -0.2867
    200  CB        36.5860   37.9470   38.7830 C.3   113  ALA113      0.0290
@<TRIPOS>BOND
     1    61    62    1
     2    56    57    2
     3    56    55    1
     4   155   154    2
     5   156   154   am
     6    62    63    1
     7    62    65    1
     8   154   153    1
     9    63    64    2
    10    55    58    1
    11    55    54    1
    12    58    59    1
    13    65    66    1
    14    49    48    2
    15   153   152    1
    16    68    66    1
    17    54    48   am
    18    54    60    1
    19    59    60    1
    20    66    67    1
    21    48    47    1
    22   152   149    1
    23   160   159    2
    24    69    70    1
    25    52    50    1
    26   159   158    1
    27   151   150    2
    28    50    47    1
    29    50    51    1
    30    47    46    1
    31    90    89    1
    32    19    18    2
    33   150   149    1
    34   150   157   am
    35   149   148    1
    36    46    40   am
    37    70    73    1
    38    70    71    1
    39    73    74    1
    40   157   158    1
    41   158   161    1
    42    38    39    1
    43    89    88   ar
    44    89    87   ar
    45    40    41    2
    46    40    39    1
    47   148   142   am
    48    51    53    1
    49    88    86   ar
    50    18    17    1
    51    39    42    1
    52    71    72    2
    53    87    85   ar
    54   164   162    1
    55    22    24   ar
    56    22    21   ar
    57   161   162    1
    58    74    76   ar
    59    74    75   ar
    60    17    20    1
    61    17    16    1
    62   162   163    1
    63    86    84   ar
    64    24    25   ar
    65    33    32    2
    66    32    31    1
    67   142   143    2
    68   142   141    1
    69    85    84   ar
    70    76    78   ar
    71    20    21    1
    72    21    23   ar
    73    42    43    1
    74    84    83    1
    75    45    43    1
    76    79    80    1
    77    75    77   ar
    78   141   144    1
    79   141   140    1
    80    43    44    1
    81    30    31    1
    82    25    23   ar
    83    25    27   ar
    84    31    34    1
    85    78    77   ar
    86   144   145    1
    87    23    26   ar
    88    83    80    1
    89    36    34    1
    90   147   145    1
    91    80    81    1
    92    27    29   ar
    93    34    35    1
    94   145   146    1
    95    35    37    1
    96    91    81   am
    97    91    92    1
    98    26    28   ar
    99    81    82    2
   100    98    96    1
   101    96    95    1
   102    29    28   ar
   103   174   175   ar
   104   174   172   ar
   105   175   173   ar
   106    95    92    1
   107    95    97    1
   108   103   104    1
   109   103   100    1
   110    92    93    1
   111    99   100    1
   112    93    94    2
   113   172   170   ar
   114   173   171   ar
   115   104   106   ar
   116   104   105   ar
   117   138   137    1
   118   100   101    1
   119   106   108   ar
   120   134   133    1
   121   134   135    1
   122   136   137    2
   123   136   135    1
   124   105   107   ar
   125   170   171   ar
   126   170   169    1
   127   137   139    1
   128   108   107   ar
   129   131   132    2
   130   131   130    1
   131   133   130    1
   132     6     5    1
   133   101   109   am
   134   101   102    2
   135     7     5    1
   136    14    12    1
   137   169   166    1
   138   128   127    1
   139   109   110    1
   140   130   129    1
   141    15    13    1
   142   165   166    1
   143     5     2    1
   144   127   126    1
   145    12    13    1
   146    12     9    1
   147   166   167    1
   148   110   113    1
   149   110   111    1
   150   113   114    1
   151   200   197    1
   152   183   181    1
   153     2     3    1
   154     2     1    1
   155   126   125    1
   156     9     8    1
   157     9    10    1
   158   167   168    2
   159   182   181    1
   160   111   112    2
   161     4     3    2
   162   192   190   ar
   163   192   194   ar
   164   190   189   ar
   165   181   180    1
   166   114   115    2
   167   114   116   am
   168   199   198    2
   169   180   177    1
   170   197   198    1
   171   197   196    1
   172    10    11    2
   173   125   122    1
   174   195   194    1
   175   194   193   ar
   176   189   188    1
   177   189   191   ar
   178   188   185    1
   179   187   186    2
   180   193   191   ar
   181   176   177    1
   182   124   123    2
   183   177   178    1
   184   123   122    1
   185   122   121    1
   186   186   185    1
   187   185   184    1
   188   121   119   am
   189   178   179    2
   190   119   118    1
   191   119   120    2
   192   118   117    1
