@<TRIPOS>MOLECULE
tmp/1s6fA00.pdb
 134 134 0 0 0
SMALL
GASTEIGER

@<TRIPOS>ATOM
      1  N         43.6770   30.0070    6.8290 N.3    40  HIS40      -0.1241
      2  CA        43.4170   28.6300    7.0870 C.3    40  HIS40       0.1621
      3  C         42.7530   27.8730    5.9370 C.2    40  HIS40       0.2264
      4  O         42.7570   26.6510    5.9870 O.2    40  HIS40      -0.2867
      5  CB        42.7590   28.4450    8.4550 C.3    40  HIS40       0.0745
      6  CG        41.2380   28.4210    8.4450 C.ar   40  HIS40       0.0817
      7  ND1       40.4210   29.4640    8.7830 N.ar   40  HIS40      -0.2268
      8  CD2       40.4480   27.3560    8.1100 C.ar   40  HIS40       0.1154
      9  CE1       39.1430   29.0590    8.6370 C.ar   40  HIS40       0.1986
     10  NE2       39.1290   27.7730    8.2790 N.ar   40  HIS40      -0.2212
     11  N         24.4150   31.6600   12.7310 N.3   171  ASP171     -0.1225
     12  CA        25.9160   31.7950   12.6850 C.3   171  ASP171      0.1805
     13  C         26.4160   31.3200   11.3400 C.2   171  ASP171      0.2598
     14  O         25.6680   30.6790   10.6010 O.2   171  ASP171     -0.2718
     15  CB        26.4550   30.8590   13.7770 C.3   171  ASP171      0.1424
     16  CG        27.9260   31.0880   14.2280 C.2   171  ASP171      0.3668
     17  OD1       28.5260   32.0660   13.7510 O.co2 171  ASP171     -0.2456
     18  OD2       28.3460   30.2950   15.0960 O.co2 171  ASP171     -0.2456
     19  N         27.7200   31.5820   10.9930 N.am  172  SER172     -0.1938
     20  CA        28.3770   30.8750    9.9330 C.3   172  SER172      0.2055
     21  C         28.7810   29.5130   10.4730 C.2   172  SER172      0.2643
     22  O         28.6690   29.2320   11.6720 O.2   172  SER172     -0.2714
     23  CB        29.5840   31.7130    9.3620 C.3   172  SER172      0.2130
     24  OG        30.4150   32.0930   10.3880 O.3   172  SER172     -0.2179
     25  N         29.2460   28.6370    9.5920 N.am  173  CYS173     -0.1953
     26  CA        29.6420   27.2720    9.9710 C.3   173  CYS173      0.1843
     27  C         30.6630   26.7170    8.9660 C.2   173  CYS173      0.2625
     28  O         30.9870   27.4240    8.0130 O.2   173  CYS173     -0.2714
     29  CB        28.4060   26.3760   10.0560 C.3   173  CYS173      0.0997
     30  SG        28.5930   24.8730   11.0270 S.3   173  CYS173     -0.0797
     31  N         31.1120   25.4490    9.1550 N.am  174  GLN174     -0.1963
     32  CA        32.0950   24.8130    8.2780 C.3   174  GLN174      0.1733
     33  C         31.7270   24.9550    6.7930 C.2   174  GLN174      0.2616
     34  O         30.6490   24.5570    6.3480 O.2   174  GLN174     -0.2715
     35  CB        32.1920   23.3540    8.6450 C.3   174  GLN174      0.0408
     36  CG        33.4260   22.6890    8.0040 C.3   174  GLN174      0.0908
     37  CD        33.4780   21.1850    8.2810 C.2   174  GLN174      0.2608
     38  OE1       33.8700   20.3890    7.4140 O.2   174  GLN174     -0.2717
     39  NE2       33.0990   20.8090    9.5050 N.am  174  GLN174     -0.0878
     40  N         32.6380   25.5120    6.0090 N.am  175  GLY175     -0.1955
     41  CA        32.5060   25.6970    4.5700 C.3   175  GLY175      0.1869
     42  C         32.2270   27.1390    4.2560 C.2   175  GLY175      0.2309
     43  O         32.3570   27.5310    3.1150 O.2   175  GLY175     -0.2863
     44  N         34.2170   29.4440    5.7520 N.3   177  SER177     -0.1217
     45  CA        35.4650   30.1310    6.0830 C.3   177  SER177      0.1889
     46  C         35.9620   30.9040    4.9160 C.2   177  SER177      0.2288
     47  O         35.8810   30.3920    3.8100 O.2   177  SER177     -0.2866
     48  CB        36.5280   29.1470    6.5620 C.3   177  SER177      0.2089
     49  OG        36.2210   28.5340    7.8030 O.3   177  SER177     -0.2183
     50  N         35.1130   35.1470    7.5680 N.3   191  VAL191     -0.1231
     51  CA        34.7060   34.0120    8.3460 C.3   191  VAL191      0.1692
     52  C         35.9430   33.2070    8.7830 C.2   191  VAL191      0.2593
     53  O         36.6890   32.8500    7.8920 O.2   191  VAL191     -0.2718
     54  CB        33.8410   33.0630    7.5270 C.3   191  VAL191      0.0266
     55  CG1       33.4150   31.8460    8.3630 C.3   191  VAL191      0.0020
     56  CG2       32.5740   33.8000    7.0120 C.3   191  VAL191      0.0020
     57  N         36.1170   32.9930   10.0790 N.am  192  SER192     -0.1938
     58  CA        37.3340   32.4030   10.5800 C.3   192  SER192      0.2055
     59  C         37.0400   31.1620   11.4070 C.2   192  SER192      0.2643
     60  O         37.4230   30.0820   10.9750 O.2   192  SER192     -0.2714
     61  CB        38.1720   33.5070   11.2700 C.3   192  SER192      0.2130
     62  OG        39.3940   32.9470   11.8040 O.3   192  SER192     -0.2179
     63  N         36.4100   31.2920   12.5970 N.am  193  TRP193     -0.1959
     64  CA        36.1850   30.1680   13.4580 C.3   193  TRP193      0.1771
     65  C         35.0320   30.4490   14.4260 C.2   193  TRP193      0.2620
     66  O         34.5380   31.5600   14.5500 O.2   193  TRP193     -0.2715
     67  CB        37.5090   29.8050   14.2250 C.3   193  TRP193      0.0590
     68  CG        38.0680   30.8150   15.1830 C.ar  193  TRP193      0.0006
     69  CD1       38.8780   31.8650   14.8820 C.ar  193  TRP193      0.0946
     70  CD2       37.9040   30.8650   16.6140 C.ar  193  TRP193      0.0152
     71  NE1       39.1600   32.5900   16.0050 N.ar  193  TRP193     -0.2442
     72  CE2       38.6140   31.9730   17.1190 C.ar  193  TRP193      0.0810
     73  CE3       37.1440   30.0980   17.5280 C.ar  193  TRP193      0.0012
     74  CZ2       38.5930   32.3170   18.4680 C.ar  193  TRP193      0.0191
     75  CZ3       37.1380   30.4330   18.8830 C.ar  193  TRP193      0.0001
     76  CH2       37.8220   31.5580   19.3470 C.ar  193  TRP193      0.0015
     77  N         34.6370   29.4000   15.1020 N.am  194  GLY194     -0.1940
     78  CA        33.7840   29.4590   16.2700 C.3   194  GLY194      0.2014
     79  C         33.8360   28.1160   16.9390 C.2   194  GLY194      0.2639
     80  O         34.2910   27.1330   16.3500 O.2   194  GLY194     -0.2714
     81  N         33.3890   28.0640   18.1920 N.am  195  TYR195     -0.1959
     82  CA        33.2850   26.7920   18.8850 C.3   195  TYR195      0.1771
     83  C         31.9650   26.1010   18.5220 C.2   195  TYR195      0.2620
     84  O         30.8870   26.5620   18.9500 O.2   195  TYR195     -0.2715
     85  CB        33.3490   26.9940   20.3900 C.3   195  TYR195      0.0574
     86  CG        33.4590   25.6990   21.1340 C.ar  195  TYR195     -0.0198
     87  CD1       34.6170   24.9410   20.9290 C.ar  195  TYR195     -0.0009
     88  CD2       32.4250   25.2370   21.9750 C.ar  195  TYR195     -0.0009
     89  CE1       34.7800   23.7300   21.5800 C.ar  195  TYR195      0.0417
     90  CE2       32.6120   24.0430   22.6920 C.ar  195  TYR195      0.0417
     91  CZ        33.8050   23.3120   22.4960 C.ar  195  TYR195      0.1957
     92  OH        34.0740   22.1830   23.1890 O.3   195  TYR195     -0.2866
     93  N         32.0870   25.0890   17.6650 N.am  196  GLY196     -0.1940
     94  CA        30.9930   24.4790   16.9400 C.3   196  GLY196      0.2014
     95  C         30.3150   25.5690   16.1020 C.2   196  GLY196      0.2639
     96  O         30.9860   26.4840   15.6540 O.2   196  GLY196     -0.2714
     97  N         28.9810   25.5270   15.9240 N.am  197  CYS197     -0.1967
     98  CA        28.3100   26.6140   15.2240 C.3   197  CYS197      0.1712
     99  C         26.9270   26.8240   15.8250 C.2   197  CYS197      0.2296
    100  O         26.2730   25.8470   16.1980 O.2   197  CYS197     -0.2864
    101  CB        28.0310   26.1460   13.7910 C.3   197  CYS197      0.0983
    102  SG        29.4410   25.5550   12.7790 S.3   197  CYS197     -0.0798
    103  N         28.5500   31.2960   21.9950 N.3   202  LYS202     -0.1245
    104  CA        29.7200   30.9920   21.1500 C.3   202  LYS202      0.1561
    105  C         29.4990   31.5760   19.7640 C.2   202  LYS202      0.2260
    106  O         29.2270   30.8540   18.8190 O.2   202  LYS202     -0.2867
    107  CB        30.0010   29.4890   21.1480 C.3   202  LYS202      0.0271
    108  CG        30.2620   28.8620   22.5450 C.3   202  LYS202      0.0035
    109  CD        31.6060   29.3270   23.1300 C.3   202  LYS202      0.0206
    110  CE        31.7780   28.9190   24.5870 C.3   202  LYS202      0.1093
    111  NZ        31.2410   29.9340   25.5020 N.3   202  LYS202     -0.1314
    112  N         30.1420   33.5850   16.1620 N.3   204  GLY204     -0.1210
    113  CA        31.1430   33.4540   15.1220 C.3   204  GLY204      0.1956
    114  C         32.2670   34.4890   15.3460 C.2   204  GLY204      0.2612
    115  O         32.0620   35.6360   15.7240 O.2   204  GLY204     -0.2717
    116  N         33.5100   34.0480   15.1040 N.am  205  VAL205     -0.1965
    117  CA        34.7080   34.9150   15.2340 C.3   205  VAL205      0.1727
    118  C         35.3190   35.0790   13.8170 C.2   205  VAL205      0.2616
    119  O         35.3850   34.1320   13.0550 O.2   205  VAL205     -0.2715
    120  CB        35.7440   34.2160   16.1690 C.3   205  VAL205      0.0290
    121  CG1       36.8900   35.2260   16.4390 C.3   205  VAL205      0.0023
    122  CG2       35.1320   33.7500   17.4900 C.3   205  VAL205      0.0023
    123  N         35.6520   36.3230   13.4890 N.am  206  TYR206     -0.1974
    124  CA        35.9360   36.7910   12.1760 C.3   206  TYR206      0.1639
    125  C         37.2360   37.5790   12.2490 C.2   206  TYR206      0.2290
    126  O         37.4490   38.3730   13.1730 O.2   206  TYR206     -0.2864
    127  CB        34.8180   37.7200   11.6860 C.3   206  TYR206      0.0560
    128  CG        33.4880   36.9520   11.5550 C.ar  206  TYR206     -0.0198
    129  CD1       32.6350   36.8220   12.6580 C.ar  206  TYR206     -0.0009
    130  CD2       33.1450   36.3460   10.3450 C.ar  206  TYR206     -0.0009
    131  CE1       31.4700   36.0290   12.5280 C.ar  206  TYR206      0.0417
    132  CE2       31.9860   35.5630   10.1980 C.ar  206  TYR206      0.0417
    133  CZ        31.1420   35.4080   11.3110 C.ar  206  TYR206      0.1957
    134  OH        30.0000   34.6770   11.1750 O.3   206  TYR206     -0.2866
@<TRIPOS>BOND
     1    43    42    2
     2    47    46    2
     3    42    41    1
     4    41    40    1
     5    46    45    1
     6    44    45    1
     7     3     4    2
     8     3     2    1
     9    40    33   am
    10    45    48    1
    11    34    33    2
    12    48    49    1
    13    33    32    1
    14     1     2    1
    15    56    54    1
    16     2     5    1
    17    38    37    2
    18    54    51    1
    19    54    55    1
    20    50    51    1
    21    53    52    2
    22    36    37    1
    23    36    35    1
    24    28    27    2
    25     8    10   ar
    26     8     6   ar
    27    32    35    1
    28    32    31    1
    29    10     9   ar
    30    37    39   am
    31    51    52    1
    32     6     5    1
    33     6     7   ar
    34     9     7   ar
    35    52    57   am
    36    27    31   am
    37    27    26    1
    38    23    20    1
    39    23    24    1
    40    25    26    1
    41    25    21   am
    42    20    21    1
    43    20    19    1
    44    26    29    1
    45    29    30    1
    46    57    58    1
    47   132   130   ar
    48   132   133   ar
    49   130   128   ar
    50    21    22    2
    51    58    61    1
    52    58    59    1
    53    14    13    2
    54    60    59    2
    55    19    13   am
    56    30   102    1
    57   134   133    1
    58    61    62    1
    59   133   131   ar
    60    13    12    1
    61    59    63   am
    62   128   127    1
    63   128   129   ar
    64   127   124    1
    65   124   125    1
    66   124   123    1
    67   125   126    2
    68   131   129   ar
    69    63    64    1
    70    12    11    1
    71    12    15    1
    72   102   101    1
    73   119   118    2
    74    64    67    1
    75    64    65    1
    76   123   118   am
    77    17    16   ar
    78    15    16    1
    79   101    98    1
    80   118   117    1
    81    67    68    1
    82    16    18   ar
    83    65    66    2
    84    65    77   am
    85    69    68   ar
    86    69    71   ar
    87    77    78    1
    88   116   117    1
    89   116   114   am
    90   113   114    1
    91   113   112    1
    92    68    70   ar
    93    98    99    1
    94    98    97    1
    95   117   120    1
    96   114   115    2
    97    96    95    2
    98    99   100    2
    99    97    95   am
   100    71    72   ar
   101    95    94    1
   102   120   121    1
   103   120   122    1
   104    78    79    1
   105    80    79    2
   106    70    72   ar
   107    70    73   ar
   108    79    81   am
   109    94    93    1
   110    72    74   ar
   111    73    75   ar
   112    93    83   am
   113    81    82    1
   114    74    76   ar
   115    83    82    1
   116    83    84    2
   117   106   105    2
   118    75    76   ar
   119    82    85    1
   120   105   104    1
   121    85    86    1
   122    87    86   ar
   123    87    89   ar
   124    86    88   ar
   125   107   104    1
   126   107   108    1
   127   104   103    1
   128    89    91   ar
   129    88    90   ar
   130    91    90   ar
   131    91    92    1
   132   108   109    1
   133   109   110    1
   134   110   111    1
