@<TRIPOS>MOLECULE
tmp/1s6hA00.pdb
 130 130 0 0 0
SMALL
GASTEIGER

@<TRIPOS>ATOM
      1  N         43.2270   27.7840    7.8090 N.3    40  HIS40      -0.1241
      2  CA        42.8990   26.4080    8.2290 C.3    40  HIS40       0.1621
      3  C         42.2040   25.6380    7.0760 C.2    40  HIS40       0.2264
      4  O         42.0460   24.4280    7.1830 O.2    40  HIS40      -0.2867
      5  CB        42.1120   26.3680    9.5280 C.3    40  HIS40       0.0745
      6  CG        40.6150   26.5990    9.3770 C.ar   40  HIS40       0.0817
      7  ND1       39.9250   27.7450    9.6690 N.ar   40  HIS40      -0.2268
      8  CD2       39.7380   25.7280    8.8710 C.ar   40  HIS40       0.1154
      9  CE1       38.6200   27.5290    9.4890 C.ar   40  HIS40       0.1986
     10  NE2       38.4730   26.3140    8.9950 N.ar   40  HIS40      -0.2212
     11  N         24.4170   30.6150   13.2530 N.3   171  ASP171     -0.1225
     12  CA        25.9140   30.6500   13.2530 C.3   171  ASP171      0.1805
     13  C         26.4050   30.1260   11.9040 C.2   171  ASP171      0.2598
     14  O         25.7100   29.4910   11.1230 O.2   171  ASP171     -0.2718
     15  CB        26.4280   29.7550   14.3710 C.3   171  ASP171      0.1424
     16  CG        27.8970   29.8980   14.7980 C.2   171  ASP171      0.3668
     17  OD1       28.5780   30.8450   14.3270 O.co2 171  ASP171     -0.2456
     18  OD2       28.3040   29.0680   15.6170 O.co2 171  ASP171     -0.2456
     19  N         27.6980   30.3690   11.5580 N.am  172  SER172     -0.1938
     20  CA        28.3630   29.6400   10.4980 C.3   172  SER172      0.2055
     21  C         28.7990   28.2410   11.0510 C.2   172  SER172      0.2643
     22  O         28.6920   27.9720   12.2490 O.2   172  SER172     -0.2714
     23  CB        29.5290   30.4950    9.9200 C.3   172  SER172      0.2130
     24  OG        30.4280   30.7790   10.9310 O.3   172  SER172     -0.2179
     25  N         29.2520   27.4090   10.1170 N.am  173  CYS173     -0.1953
     26  CA        29.5780   26.0160   10.4410 C.3   173  CYS173      0.1843
     27  C         30.6270   25.4370    9.5020 C.2   173  CYS173      0.2625
     28  O         31.1100   26.1000    8.5830 O.2   173  CYS173     -0.2714
     29  CB        28.2600   25.2210   10.4230 C.3   173  CYS173      0.0997
     30  SG        28.3190   23.6540   11.3600 S.3   173  CYS173     -0.0797
     31  N         30.9600   24.1560    9.7190 N.am  174  GLN174     -0.1977
     32  CA        31.8950   23.4730    8.8050 C.3   174  GLN174      0.1601
     33  C         31.4670   23.6590    7.3730 C.2   174  GLN174      0.2287
     34  O         30.2880   23.5260    6.9920 O.2   174  GLN174     -0.2864
     35  CB        32.0490   21.9790    9.0690 C.3   174  GLN174      0.0394
     36  CG        32.8260   21.7220   10.3390 C.3   174  GLN174      0.0908
     37  CD        32.1160   22.1180   11.6260 C.2   174  GLN174      0.2608
     38  OE1       31.0210   21.6310   11.9410 O.2   174  GLN174     -0.2717
     39  NE2       32.7470   22.9530   12.4400 N.am  174  GLN174     -0.0878
     40  N         33.8830   27.8900    6.5070 N.3   177  SER177     -0.1217
     41  CA        35.2490   28.3970    6.7680 C.3   177  SER177      0.1889
     42  C         35.8020   29.0850    5.5700 C.2   177  SER177      0.2288
     43  O         35.7010   28.6630    4.4310 O.2   177  SER177     -0.2866
     44  CB        36.0940   27.1630    7.0510 C.3   177  SER177      0.2089
     45  OG        35.7890   26.6890    8.3030 O.3   177  SER177     -0.2183
     46  N         35.2130   33.5200    8.1870 N.3   191  VAL191     -0.1231
     47  CA        34.7670   32.3930    9.0000 C.3   191  VAL191      0.1692
     48  C         36.0120   31.5980    9.4640 C.2   191  VAL191      0.2593
     49  O         36.7110   31.0880    8.5960 O.2   191  VAL191     -0.2718
     50  CB        33.7820   31.4970    8.1760 C.3   191  VAL191      0.0266
     51  CG1       33.3850   30.3170    9.0800 C.3   191  VAL191      0.0020
     52  CG2       32.5190   32.2740    7.7020 C.3   191  VAL191      0.0020
     53  N         36.1760   31.4890   10.7580 N.am  192  SER192     -0.1938
     54  CA        37.4010   30.8530   11.3060 C.3   192  SER192      0.2055
     55  C         37.0710   29.6920   12.2390 C.2   192  SER192      0.2643
     56  O         37.5060   28.5550   11.9430 O.2   192  SER192     -0.2714
     57  CB        38.2260   31.9940   11.9360 C.3   192  SER192      0.2130
     58  OG        39.4030   31.4530   12.5060 O.3   192  SER192     -0.2179
     59  N         36.4350   29.9440   13.3690 N.am  193  TRP193     -0.1959
     60  CA        36.2890   28.8960   14.3570 C.3   193  TRP193      0.1771
     61  C         35.1080   29.1240   15.2730 C.2   193  TRP193      0.2620
     62  O         34.3950   30.1250   15.1800 O.2   193  TRP193     -0.2715
     63  CB        37.6230   28.6720   15.1190 C.3   193  TRP193      0.0590
     64  CG        38.0780   29.7620   16.0240 C.ar  193  TRP193      0.0006
     65  CD1       38.8870   30.7990   15.6720 C.ar  193  TRP193      0.0946
     66  CD2       37.9520   29.8410   17.4340 C.ar  193  TRP193      0.0152
     67  NE1       39.1740   31.5400   16.7720 N.ar  193  TRP193     -0.2442
     68  CE2       38.6720   30.9920   17.9040 C.ar  193  TRP193      0.0810
     69  CE3       37.3900   29.0100   18.4190 C.ar  193  TRP193      0.0012
     70  CZ2       38.7410   31.3360   19.2340 C.ar  193  TRP193      0.0191
     71  CZ3       37.4470   29.3610   19.7630 C.ar  193  TRP193      0.0001
     72  CH2       38.1350   30.5270   20.1940 C.ar  193  TRP193      0.0015
     73  N         34.9240   28.1970   16.1900 N.am  194  GLY194     -0.1940
     74  CA        33.9710   28.2580   17.2750 C.3   194  GLY194      0.2014
     75  C         33.8290   26.8720   17.8790 C.2   194  GLY194      0.2639
     76  O         34.3650   25.9320   17.2990 O.2   194  GLY194     -0.2714
     77  N         33.0410   26.7330   18.9510 N.am  195  TYR195     -0.1959
     78  CA        32.8600   25.4190   19.5760 C.3   195  TYR195      0.1771
     79  C         31.5830   24.7590   19.0370 C.2   195  TYR195      0.2620
     80  O         30.4970   25.2010   19.4040 O.2   195  TYR195     -0.2715
     81  CB        32.9000   25.5530   21.0690 C.3   195  TYR195      0.0574
     82  CG        33.0520   24.2360   21.7670 C.ar  195  TYR195     -0.0198
     83  CD1       34.3290   23.6510   21.7610 C.ar  195  TYR195     -0.0009
     84  CD2       31.9610   23.6070   22.4040 C.ar  195  TYR195     -0.0009
     85  CE1       34.5440   22.4820   22.5000 C.ar  195  TYR195      0.0417
     86  CE2       32.1820   22.4170   23.1320 C.ar  195  TYR195      0.0417
     87  CZ        33.4900   21.8870   23.2180 C.ar  195  TYR195      0.1957
     88  OH        33.7700   20.8650   24.0860 O.3   195  TYR195     -0.2866
     89  N         31.7070   23.8220   18.1350 N.am  196  GLY196     -0.1940
     90  CA        30.5610   23.3020   17.4260 C.3   196  GLY196      0.2014
     91  C         29.9960   24.3780   16.5130 C.2   196  GLY196      0.2639
     92  O         30.7320   25.1820   15.9270 O.2   196  GLY196     -0.2714
     93  N         28.6640   24.4260   16.3850 N.am  197  CYS197     -0.1967
     94  CA        28.0010   25.4210   15.5670 C.3   197  CYS197      0.1712
     95  C         26.6260   25.7510   16.1390 C.2   197  CYS197      0.2296
     96  O         25.8260   24.8190   16.2960 O.2   197  CYS197     -0.2864
     97  CB        27.7030   24.8700   14.2030 C.3   197  CYS197      0.0983
     98  SG        29.1300   24.2380   13.3460 S.3   197  CYS197     -0.0798
     99  N         28.3260   30.2000   22.5090 N.3   202  LYS202     -0.1245
    100  CA        29.4840   29.8600   21.6870 C.3   202  LYS202      0.1561
    101  C         29.3510   30.4930   20.3220 C.2   202  LYS202      0.2260
    102  O         29.1340   29.8180   19.3240 O.2   202  LYS202     -0.2867
    103  CB        29.6260   28.3350   21.5980 C.3   202  LYS202      0.0271
    104  CG        29.9760   27.7110   22.9550 C.3   202  LYS202      0.0035
    105  CD        31.3280   28.1800   23.5340 C.3   202  LYS202      0.0206
    106  CE        31.7420   27.4430   24.8190 C.3   202  LYS202      0.1093
    107  NZ        33.1040   27.8400   25.2610 N.3   202  LYS202     -0.1314
    108  N         30.1350   32.4430   16.7450 N.3   204  GLY204     -0.1210
    109  CA        31.1650   32.2800   15.7610 C.3   204  GLY204      0.1956
    110  C         32.2860   33.2830   16.0140 C.2   204  GLY204      0.2612
    111  O         32.0780   34.4260   16.3730 O.2   204  GLY204     -0.2717
    112  N         33.5110   32.7890   15.8160 N.am  205  VAL205     -0.1965
    113  CA        34.7310   33.5970   15.9120 C.3   205  VAL205      0.1727
    114  C         35.3210   33.6980   14.5310 C.2   205  VAL205      0.2616
    115  O         35.4080   32.7890   13.7130 O.2   205  VAL205     -0.2715
    116  CB        35.7610   32.9520   16.8290 C.3   205  VAL205      0.0290
    117  CG1       36.9620   33.9560   17.0520 C.3   205  VAL205      0.0023
    118  CG2       35.2330   32.5840   18.1930 C.3   205  VAL205      0.0023
    119  N         35.7100   34.9210   14.1550 N.am  206  TYR206     -0.1974
    120  CA        36.0650   35.3390   12.8310 C.3   206  TYR206      0.1639
    121  C         37.3920   36.1070   12.8220 C.2   206  TYR206      0.2290
    122  O         37.6600   36.9040   13.7170 O.2   206  TYR206     -0.2864
    123  CB        34.9720   36.2630   12.2640 C.3   206  TYR206      0.0560
    124  CG        33.6340   35.5270   12.1810 C.ar  206  TYR206     -0.0198
    125  CD1       32.7970   35.4880   13.3130 C.ar  206  TYR206     -0.0009
    126  CD2       33.3060   34.9040   10.9950 C.ar  206  TYR206     -0.0009
    127  CE1       31.6120   34.7170   13.1860 C.ar  206  TYR206      0.0417
    128  CE2       32.1230   34.1540   10.8760 C.ar  206  TYR206      0.0417
    129  CZ        31.2990   34.0980   11.9780 C.ar  206  TYR206      0.1957
    130  OH        30.1310   33.3860   11.7810 O.3   206  TYR206     -0.2866
@<TRIPOS>BOND
     1    43    42    2
     2    42    41    1
     3    40    41    1
     4    41    44    1
     5    34    33    2
     6    44    45    1
     7     3     4    2
     8     3     2    1
     9    33    32    1
    10    52    50    1
    11     1     2    1
    12    50    47    1
    13    50    51    1
    14    46    47    1
    15     2     5    1
    16    28    27    2
    17    49    48    2
    18    32    35    1
    19    32    31    1
    20     8    10   ar
    21     8     6   ar
    22    10     9   ar
    23    47    48    1
    24    35    36    1
    25     6     5    1
    26     6     7   ar
    27    48    53   am
    28     9     7   ar
    29    27    31   am
    30    27    26    1
    31    23    20    1
    32    23    24    1
    33    25    26    1
    34    25    21   am
    35    36    37    1
    36    29    26    1
    37    29    30    1
    38    20    21    1
    39    20    19    1
    40    53    54    1
    41   128   126   ar
    42   128   129   ar
    43   126   124   ar
    44    21    22    2
    45    14    13    2
    46    54    57    1
    47    54    55    1
    48    30    98    1
    49    19    13   am
    50    37    38    2
    51    37    39   am
    52   130   129    1
    53    13    12    1
    54    57    58    1
    55    56    55    2
    56   129   127   ar
    57   124   123    1
    58   124   125   ar
    59    55    59   am
    60   123   120    1
    61   121   120    1
    62   121   122    2
    63   120   119    1
    64   127   125   ar
    65    11    12    1
    66    12    15    1
    67    98    97    1
    68    59    60    1
    69   115   114    2
    70   119   114   am
    71    97    94    1
    72    17    16   ar
    73    60    63    1
    74    60    61    1
    75    15    16    1
    76   114   113    1
    77    16    18   ar
    78    63    64    1
    79    62    61    2
    80    61    73   am
    81    94    95    1
    82    94    93    1
    83    65    64   ar
    84    65    67   ar
    85   109   110    1
    86   109   108    1
    87   112   113    1
    88   112   110   am
    89   113   116    1
    90    92    91    2
    91   110   111    2
    92    64    66   ar
    93    95    96    2
    94    73    74    1
    95    93    91   am
    96    91    90    1
    97    67    68   ar
    98   116   117    1
    99   116   118    1
   100    74    75    1
   101    76    75    2
   102    90    89    1
   103    66    68   ar
   104    66    69   ar
   105    75    77   am
   106    68    70   ar
   107    89    79   am
   108    69    71   ar
   109    77    78    1
   110    79    80    2
   111    79    78    1
   112    70    72   ar
   113   102   101    2
   114    78    81    1
   115    71    72   ar
   116   101   100    1
   117    81    82    1
   118   103   100    1
   119   103   104    1
   120   100    99    1
   121    83    82   ar
   122    83    85   ar
   123    82    84   ar
   124    84    86   ar
   125    85    87   ar
   126   104   105    1
   127    86    87   ar
   128    87    88    1
   129   105   106    1
   130   106   107    1
