@<TRIPOS>MOLECULE
tmp/1s6pA00.pdb
 144 142 0 0 0
SMALL
GASTEIGER

@<TRIPOS>ATOM
      1  N        140.8800  -15.5710   75.9710 N.3    95  PRO95      -0.2116
      2  CA       140.0430  -16.3840   75.0900 C.3    95  PRO95       0.1372
      3  C        139.1810  -17.3170   75.8850 C.2    95  PRO95       0.2244
      4  O        139.6930  -18.0850   76.6760 O.2    95  PRO95      -0.2868
      5  CB       141.0610  -17.1440   74.2620 C.3    95  PRO95       0.0268
      6  CG       142.2390  -17.2490   75.1910 C.3    95  PRO95       0.0207
      7  CD       142.3060  -15.8770   75.7800 C.3    95  PRO95       0.0892
      8  N        136.9170  -22.3380   71.4120 N.3   100  LEU100     -0.1231
      9  CA       138.1690  -22.9210   70.9880 C.3   100  LEU100      0.1693
     10  C        137.7590  -24.0290   70.0450 C.2   100  LEU100      0.2591
     11  O        136.6050  -24.4550   70.0560 O.2   100  LEU100     -0.2718
     12  CB       138.8810  -23.5230   72.2000 C.3   100  LEU100      0.0284
     13  CG       139.4520  -22.5490   73.2250 C.3   100  LEU100      0.0019
     14  CD1      139.7690  -23.2810   74.5340 C.3   100  LEU100      0.0001
     15  CD2      140.6780  -21.9050   72.6330 C.3   100  LEU100      0.0001
     16  N        138.6960  -24.5000   69.2330 N.am  101  LYS101     -0.1980
     17  CA       138.4330  -25.5940   68.2910 C.3   101  LYS101      0.1596
     18  C        139.2030  -26.8720   68.6010 C.2   101  LYS101      0.2287
     19  O        140.3900  -26.8470   68.9380 O.2   101  LYS101     -0.2864
     20  CB       138.8000  -25.1490   66.8740 C.3   101  LYS101      0.0298
     21  CG       138.9390  -26.3610   65.8680 C.3   101  LYS101      0.0038
     22  CD       139.6870  -25.9640   64.6020 C.3   101  LYS101      0.0206
     23  CE       140.0580  -27.1380   63.7350 C.3   101  LYS101      0.1093
     24  NZ       141.0100  -26.7320   62.6740 N.3   101  LYS101     -0.1314
     25  N        141.3840  -29.9790   68.9330 N.3   103  LYS103     -0.1245
     26  CA       142.7790  -30.0450   68.5970 C.3   103  LYS103      0.1561
     27  C        143.3420  -31.3770   69.1160 C.2   103  LYS103      0.2260
     28  O        143.1070  -31.7910   70.2650 O.2   103  LYS103     -0.2867
     29  CB       143.4980  -28.8440   69.2010 C.3   103  LYS103      0.0271
     30  CG       143.1120  -27.5170   68.5400 C.3   103  LYS103      0.0035
     31  CD       143.4320  -27.5340   67.0390 C.3   103  LYS103      0.0206
     32  CE       143.0420  -26.2280   66.3440 C.3   103  LYS103      0.1093
     33  NZ       143.4910  -26.1630   64.9190 N.3   103  LYS103     -0.1314
     34  N        148.2360  -31.3190   71.9530 N.3   106  VAL106     -0.1245
     35  CA       148.5260  -30.0450   72.5990 C.3   106  VAL106      0.1561
     36  C        149.6890  -30.1790   73.5780 C.2   106  VAL106      0.2260
     37  O        149.7090  -31.0540   74.4440 O.2   106  VAL106     -0.2867
     38  CB       147.2980  -29.5720   73.4030 C.3   106  VAL106      0.0252
     39  CG1      147.5200  -28.2210   74.0850 C.3   106  VAL106      0.0019
     40  CG2      146.0520  -29.4110   72.5320 C.3   106  VAL106      0.0019
     41  N        149.2290  -24.1100   65.7880 N.3   179  VAL179     -0.1245
     42  CA       148.9270  -22.8650   66.4990 C.3   179  VAL179      0.1561
     43  C        149.6430  -22.7460   67.8500 C.2   179  VAL179      0.2260
     44  O        149.7320  -23.7070   68.6220 O.2   179  VAL179     -0.2867
     45  CB       147.4300  -22.8220   66.7610 C.3   179  VAL179      0.0252
     46  CG1      146.9490  -23.9980   67.6150 C.3   179  VAL179      0.0019
     47  CG2      146.9960  -21.5560   67.4850 C.3   179  VAL179      0.0019
     48  N        150.0870  -20.2940   71.4350 N.3   181  TYR181     -0.1241
     49  CA       149.4180  -19.3680   72.3560 C.3   181  TYR181      0.1605
     50  C        150.2930  -19.1880   73.6050 C.2   181  TYR181      0.2264
     51  O        150.9750  -20.1200   74.0310 O.2   181  TYR181     -0.2867
     52  CB       148.0530  -19.9200   72.7570 C.3   181  TYR181      0.0534
     53  CG       147.4250  -19.1390   73.9060 C.ar  181  TYR181     -0.0201
     54  CD1      147.0360  -17.8090   73.7180 C.ar  181  TYR181     -0.0009
     55  CD2      147.2420  -19.7530   75.1470 C.ar  181  TYR181     -0.0009
     56  CE1      146.4670  -17.0920   74.7780 C.ar  181  TYR181      0.0417
     57  CE2      146.6750  -19.0360   76.2070 C.ar  181  TYR181      0.0417
     58  CZ       146.2880  -17.7050   76.0230 C.ar  181  TYR181      0.1957
     59  OH       145.7380  -17.0060   77.0530 O.3   181  TYR181     -0.2866
     60  N        151.7470  -22.4730   75.2350 N.3   188  TYR188     -0.1227
     61  CA       151.1170  -23.7350   74.8580 C.3   188  TYR188      0.1736
     62  C        151.1230  -23.8140   73.3330 C.2   188  TYR188      0.2595
     63  O        150.8700  -22.8150   72.6420 O.2   188  TYR188     -0.2718
     64  CB       149.6260  -23.8330   75.2450 C.3   188  TYR188      0.0548
     65  CG       149.2110  -23.6550   76.7080 C.ar  188  TYR188     -0.0200
     66  CD1      149.6650  -22.5670   77.4590 C.ar  188  TYR188     -0.0009
     67  CD2      148.3330  -24.5890   77.2870 C.ar  188  TYR188     -0.0009
     68  CE1      149.2090  -22.3880   78.7760 C.ar  188  TYR188      0.0417
     69  CE2      147.8660  -24.4010   78.5950 C.ar  188  TYR188      0.0417
     70  CZ       148.2980  -23.2960   79.3370 C.ar  188  TYR188      0.1957
     71  OH       147.8230  -23.0940   80.5970 O.3   188  TYR188     -0.2866
     72  N        151.4200  -24.9840   72.8330 N.am  189  VAL189     -0.1966
     73  CA       151.4020  -25.2410   71.3890 C.3   189  VAL189      0.1727
     74  C        150.5350  -26.4650   71.1350 C.2   189  VAL189      0.2616
     75  O        150.8620  -27.5730   71.5730 O.2   189  VAL189     -0.2715
     76  CB       152.8140  -25.5010   70.8580 C.3   189  VAL189      0.0290
     77  CG1      152.8410  -25.7640   69.3480 C.3   189  VAL189      0.0023
     78  CG2      153.7740  -24.3330   71.0880 C.3   189  VAL189      0.0023
     79  N        149.4420  -26.2320   70.4410 N.am  190  GLY190     -0.1955
     80  CA       148.4740  -27.2930   70.1130 C.3   190  GLY190      0.1869
     81  C        148.3830  -27.4420   68.6030 C.2   190  GLY190      0.2309
     82  O        148.4940  -26.4600   67.8600 O.2   190  GLY190     -0.2863
     83  N        144.5270  -29.3240   81.7040 N.3   227  PHE227     -0.1241
     84  CA       145.4080  -28.1670   81.8190 C.3   227  PHE227      0.1605
     85  C        144.6520  -27.1940   82.7220 C.2   227  PHE227      0.2264
     86  O        143.4670  -26.9230   82.5030 O.2   227  PHE227     -0.2867
     87  CB       145.6120  -27.5040   80.4600 C.3   227  PHE227      0.0534
     88  CG       146.6160  -28.1810   79.5830 C.ar  227  PHE227     -0.0203
     89  CD1      147.9690  -27.9790   79.7720 C.ar  227  PHE227     -0.0042
     90  CD2      146.2080  -28.9880   78.5380 C.ar  227  PHE227     -0.0042
     91  CE1      148.9100  -28.5710   78.9210 C.ar  227  PHE227     -0.0003
     92  CE2      147.1360  -29.5850   77.6820 C.ar  227  PHE227     -0.0003
     93  CZ       148.4890  -29.3760   77.8730 C.ar  227  PHE227     -0.0000
     94  N        144.1470  -23.6840   83.4650 N.3   229  TRP229     -0.1241
     95  CA       144.3950  -22.3760   82.8760 C.3   229  TRP229      0.1605
     96  C        143.2700  -21.4030   83.1900 C.2   229  TRP229      0.2264
     97  O        142.0990  -21.7670   83.1270 O.2   229  TRP229     -0.2867
     98  CB       144.5320  -22.5390   81.3530 C.3   229  TRP229      0.0550
     99  CG       144.5870  -21.2610   80.5880 C.ar  229  TRP229      0.0003
    100  CD1      145.5480  -20.3110   80.6680 C.ar  229  TRP229      0.0946
    101  CD2      143.6280  -20.7830   79.6340 C.ar  229  TRP229      0.0152
    102  NE1      145.2550  -19.2610   79.8290 N.ar  229  TRP229     -0.2442
    103  CE2      144.0810  -19.5280   79.1830 C.ar  229  TRP229      0.0810
    104  CE3      142.4320  -21.2910   79.1210 C.ar  229  TRP229      0.0012
    105  CZ2      143.3810  -18.7760   78.2420 C.ar  229  TRP229      0.0191
    106  CZ3      141.7350  -20.5390   78.1830 C.ar  229  TRP229      0.0001
    107  CH2      142.2130  -19.2990   77.7560 C.ar  229  TRP229      0.0015
    108  N        141.4050  -27.7360   80.7840 N.3   234  LEU234     -0.1231
    109  CA       141.4680  -27.9260   79.3350 C.3   234  LEU234      0.1693
    110  C        141.9740  -29.2470   78.7990 C.2   234  LEU234      0.2592
    111  O        143.1380  -29.5760   78.9520 O.2   234  LEU234     -0.2718
    112  CB       142.3320  -26.8380   78.7080 C.3   234  LEU234      0.0284
    113  CG       141.8930  -25.3990   78.9100 C.3   234  LEU234      0.0019
    114  CD1      142.9580  -24.4770   78.3310 C.3   234  LEU234      0.0001
    115  CD2      140.5410  -25.1850   78.2560 C.3   234  LEU234      0.0001
    116  N        141.1030  -29.9850   78.1300 N.am  235  HIS235     -0.1962
    117  CA       141.4960  -31.2470   77.5230 C.3   235  HIS235      0.1772
    118  C        141.4890  -30.9970   76.0080 C.2   235  HIS235      0.2462
    119  O        140.8380  -30.0730   75.5280 O.2   235  HIS235     -0.2730
    120  CB       140.5030  -32.3600   77.9150 C.3   235  HIS235      0.0785
    121  CG       140.3890  -32.5810   79.3990 C.ar  235  HIS235      0.0821
    122  ND1      141.2820  -33.3510   80.1080 N.ar  235  HIS235     -0.2267
    123  CD2      139.5020  -32.1000   80.3070 C.ar  235  HIS235      0.1154
    124  CE1      140.9490  -33.3370   81.3900 C.ar  235  HIS235      0.1986
    125  NE2      139.8750  -32.5850   81.5370 N.ar  235  HIS235     -0.2212
    126  N        142.2360  -31.8020   75.2430 N.am  236  PRO236     -0.2727
    127  CA       142.3180  -31.6730   73.7820 C.3   236  PRO236      0.1402
    128  C        140.9880  -31.6960   73.0090 C.2   236  PRO236      0.2269
    129  O        140.9810  -31.6230   71.7790 O.2   236  PRO236     -0.2865
    130  CB       143.2260  -32.8350   73.3910 C.3   236  PRO236      0.0296
    131  CG       144.1670  -32.8950   74.5460 C.3   236  PRO236      0.0237
    132  CD       143.2270  -32.7750   75.7300 C.3   236  PRO236      0.0939
    133  N        133.5850  -28.2520   71.7520 N.3   318  TYR318     -0.1241
    134  CA       134.1500  -27.1270   71.0320 C.3   318  TYR318      0.1605
    135  C        133.3130  -26.6780   69.8300 C.2   318  TYR318      0.2264
    136  O        132.2680  -27.2660   69.5110 O.2   318  TYR318     -0.2867
    137  CB       135.5640  -27.4500   70.5850 C.3   318  TYR318      0.0534
    138  CG       136.5610  -27.4910   71.7200 C.ar  318  TYR318     -0.0201
    139  CD1      137.8890  -27.8050   71.4820 C.ar  318  TYR318     -0.0009
    140  CD2      136.1860  -27.2060   73.0250 C.ar  318  TYR318     -0.0009
    141  CE1      138.8150  -27.8360   72.5030 C.ar  318  TYR318      0.0417
    142  CE2      137.1180  -27.2300   74.0580 C.ar  318  TYR318      0.0417
    143  CZ       138.4290  -27.5450   73.7850 C.ar  318  TYR318      0.1957
    144  OH       139.3610  -27.5560   74.7970 O.3   318  TYR318     -0.2866
@<TRIPOS>BOND
     1    24    23    1
     2    23    22    1
     3    22    21    1
     4    33    32    1
     5    41    42    1
     6    21    20    1
     7    32    31    1
     8    42    45    1
     9    42    43    1
    10    45    47    1
    11    45    46    1
    12    20    17    1
    13    31    30    1
    14    43    44    2
    15    82    81    2
    16    17    18    1
    17    17    16    1
    18    30    29    1
    19    26    25    1
    20    26    27    1
    21    26    29    1
    22    18    19    2
    23    81    80    1
    24    27    28    2
    25    16    10   am
    26    77    76    1
    27   136   135    2
    28   135   134    1
    29    10    11    2
    30    10     9    1
    31    80    79    1
    32    79    74   am
    33   137   134    1
    34   137   138    1
    35    76    78    1
    36    76    73    1
    37     9     8    1
    38     9    12    1
    39   134   133    1
    40    74    73    1
    41    74    75    2
    42    73    72    1
    43    48    49    1
    44   139   138   ar
    45   139   141   ar
    46   138   140   ar
    47   129   128    2
    48    34    35    1
    49    12    13    1
    50    49    52    1
    51    49    50    1
    52   141   143   ar
    53    40    38    1
    54    35    38    1
    55    35    36    1
    56    15    13    1
    57    63    62    2
    58    52    53    1
    59    72    62   am
    60   128   127    1
    61   140   142   ar
    62    13    14    1
    63    62    61    1
    64   130   127    1
    65   130   131    1
    66    38    39    1
    67    36    37    2
    68    50    51    2
    69    54    53   ar
    70    54    56   ar
    71   127   126    1
    72   143   142   ar
    73   143   144    1
    74    53    55   ar
    75     5     2    1
    76     5     6    1
    77   131   132    1
    78    56    58   ar
    79    61    60    1
    80    61    64    1
    81     2     3    1
    82     2     1    1
    83    55    57   ar
    84     6     7    1
    85   126   132    1
    86   126   118   am
    87    64    65    1
    88   119   118    2
    89     7     1    1
    90     3     4    2
    91   118   117    1
    92    58    57   ar
    93    58    59    1
    94    65    67   ar
    95    65    66   ar
    96    67    69   ar
    97    66    68   ar
    98   117   120    1
    99   117   116    1
   100    92    93   ar
   101    92    90   ar
   102   107   106   ar
   103   107   105   ar
   104    93    91   ar
   105   120   121    1
   106   116   110   am
   107   106   104   ar
   108   105   103   ar
   109   115   113    1
   110   114   113    1
   111    90    88   ar
   112    69    70   ar
   113   112   113    1
   114   112   109    1
   115    68    70   ar
   116   110   111    2
   117   110   109    1
   118    91    89   ar
   119   104   101   ar
   120   103   101   ar
   121   103   102   ar
   122   109   108    1
   123    70    71    1
   124   121   122   ar
   125   121   123   ar
   126    88    89   ar
   127    88    87    1
   128   101    99   ar
   129   102   100   ar
   130   122   124   ar
   131   123   125   ar
   132    87    84    1
   133    99   100   ar
   134    99    98    1
   135    98    95    1
   136   124   125   ar
   137    83    84    1
   138    84    85    1
   139    86    85    2
   140    95    96    1
   141    95    94    1
   142    97    96    2
