@<TRIPOS>MOLECULE
tmp/1s6qA00.pdb
 152 151 0 0 0
SMALL
GASTEIGER

@<TRIPOS>ATOM
      1  N        142.2900  -16.1090   77.4020 N.3    95  PRO95      -0.2116
      2  CA       141.4870  -16.8650   76.4420 C.3    95  PRO95       0.1372
      3  C        140.6240  -17.8360   77.2210 C.2    95  PRO95       0.2244
      4  O        141.0080  -18.2660   78.3140 O.2    95  PRO95      -0.2868
      5  CB       142.5400  -17.5630   75.5650 C.3    95  PRO95       0.0268
      6  CG       143.7120  -17.6660   76.4170 C.3    95  PRO95       0.0207
      7  CD       143.7240  -16.3570   77.1780 C.3    95  PRO95       0.0892
      8  N        138.6030  -23.1330   72.6780 N.3   100  LEU100     -0.1231
      9  CA       139.8920  -23.6480   72.2960 C.3   100  LEU100      0.1693
     10  C        139.6200  -24.8100   71.3700 C.2   100  LEU100      0.2591
     11  O        138.7170  -25.6190   71.5930 O.2   100  LEU100     -0.2718
     12  CB       140.6850  -24.0920   73.5310 C.3   100  LEU100      0.0284
     13  CG       141.5130  -23.0110   74.2110 C.3   100  LEU100      0.0019
     14  CD1      142.2780  -23.6040   75.3800 C.3   100  LEU100      0.0001
     15  CD2      142.4680  -22.4170   73.2080 C.3   100  LEU100      0.0001
     16  N        140.3970  -24.8720   70.3040 N.am  101  LYS101     -0.1980
     17  CA       140.2310  -25.9370   69.3380 C.3   101  LYS101      0.1596
     18  C        140.9770  -27.1410   69.8330 C.2   101  LYS101      0.2287
     19  O        142.0550  -27.0130   70.4030 O.2   101  LYS101     -0.2864
     20  CB       140.7920  -25.5200   67.9880 C.3   101  LYS101      0.0298
     21  CG       140.2180  -24.2100   67.4460 C.3   101  LYS101      0.0038
     22  CD       140.8470  -23.0030   68.1510 C.3   101  LYS101      0.0206
     23  CE       140.3160  -21.6770   67.5770 C.3   101  LYS101      0.1093
     24  NZ       140.9340  -20.4740   68.2150 N.3   101  LYS101     -0.1314
     25  N        143.1530  -30.6040   70.1020 N.3   103  LYS103     -0.1245
     26  CA       144.4790  -30.9660   69.6130 C.3   103  LYS103      0.1561
     27  C        144.8560  -32.4210   69.9920 C.2   103  LYS103      0.2260
     28  O        144.1780  -33.0620   70.8100 O.2   103  LYS103     -0.2867
     29  CB       145.5050  -29.9780   70.1740 C.3   103  LYS103      0.0271
     30  CG       145.2740  -28.5360   69.7290 C.3   103  LYS103      0.0035
     31  CD       145.3400  -28.4090   68.2050 C.3   103  LYS103      0.0206
     32  CE       145.3520  -26.9490   67.7650 C.3   103  LYS103      0.1093
     33  NZ       145.4530  -26.7790   66.2890 N.3   103  LYS103     -0.1314
     34  N        149.9830  -32.0250   73.5880 N.3   106  VAL106     -0.1245
     35  CA       150.4500  -30.7040   73.9680 C.3   106  VAL106      0.1561
     36  C        151.8140  -30.8690   74.6170 C.2   106  VAL106      0.2260
     37  O        152.3550  -31.9620   74.6230 O.2   106  VAL106     -0.2867
     38  CB       149.4490  -30.0170   74.9300 C.3   106  VAL106      0.0252
     39  CG1      149.8990  -28.5970   75.2440 C.3   106  VAL106      0.0019
     40  CG2      148.0700  -29.9800   74.2930 C.3   106  VAL106      0.0019
     41  N        150.3590  -24.8200   67.4030 N.3   179  VAL179     -0.1231
     42  CA       149.8490  -23.6650   68.1030 C.3   179  VAL179      0.1692
     43  C        150.7540  -23.3870   69.2850 C.2   179  VAL179      0.2592
     44  O        151.0180  -24.2580   70.1080 O.2   179  VAL179     -0.2718
     45  CB       148.3980  -23.8740   68.6100 C.3   179  VAL179      0.0266
     46  CG1      147.4850  -24.1360   67.4440 C.3   179  VAL179      0.0020
     47  CG2      148.3180  -25.0240   69.5810 C.3   179  VAL179      0.0020
     48  N        151.2410  -22.1640   69.3650 N.am  180  ILE180     -0.1966
     49  CA       152.0990  -21.7930   70.4560 C.3   180  ILE180      0.1727
     50  C        151.4440  -20.6970   71.2730 C.2   180  ILE180      0.2616
     51  O        150.8990  -19.7460   70.7230 O.2   180  ILE180     -0.2715
     52  CB       153.4110  -21.3020   69.9390 C.3   180  ILE180      0.0290
     53  CG1      153.9760  -22.3350   68.9740 C.3   180  ILE180      0.0022
     54  CG2      154.3290  -21.0220   71.0990 C.3   180  ILE180      0.0023
     55  CD1      155.3530  -22.0060   68.4660 C.3   180  ILE180      0.0001
     56  N        151.5030  -20.8410   72.5910 N.am  181  TYR181     -0.1974
     57  CA       150.9260  -19.8790   73.5210 C.3   181  TYR181      0.1639
     58  C        151.8430  -19.7690   74.7580 C.2   181  TYR181      0.2290
     59  O        152.1640  -20.7790   75.3670 O.2   181  TYR181     -0.2864
     60  CB       149.5370  -20.3600   73.9190 C.3   181  TYR181      0.0560
     61  CG       148.9200  -19.5530   75.0220 C.ar  181  TYR181     -0.0198
     62  CD1      148.1220  -18.4560   74.7450 C.ar  181  TYR181     -0.0009
     63  CD2      149.1630  -19.8640   76.3500 C.ar  181  TYR181     -0.0009
     64  CE1      147.5880  -17.6930   75.7630 C.ar  181  TYR181      0.0417
     65  CE2      148.6350  -19.1070   77.3670 C.ar  181  TYR181      0.0417
     66  CZ       147.8540  -18.0260   77.0660 C.ar  181  TYR181      0.1957
     67  OH       147.3610  -17.2550   78.0770 O.3   181  TYR181     -0.2866
     68  N        153.3350  -23.1650   76.2320 N.3   188  TYR188     -0.1227
     69  CA       152.6060  -24.3450   75.7780 C.3   188  TYR188      0.1736
     70  C        152.6240  -24.5410   74.2630 C.2   188  TYR188      0.2595
     71  O        152.4010  -23.5980   73.5270 O.2   188  TYR188     -0.2718
     72  CB       151.1400  -24.2430   76.1940 C.3   188  TYR188      0.0548
     73  CG       150.8610  -24.2250   77.6720 C.ar  188  TYR188     -0.0200
     74  CD1      151.3360  -23.2030   78.4830 C.ar  188  TYR188     -0.0009
     75  CD2      150.1040  -25.2320   78.2550 C.ar  188  TYR188     -0.0009
     76  CE1      151.0580  -23.1780   79.8510 C.ar  188  TYR188      0.0417
     77  CE2      149.8220  -25.2310   79.6210 C.ar  188  TYR188      0.0417
     78  CZ       150.3020  -24.1970   80.4180 C.ar  188  TYR188      0.1957
     79  OH       150.0190  -24.1660   81.7700 O.3   188  TYR188     -0.2866
     80  N        152.8620  -25.7630   73.7920 N.am  189  VAL189     -0.1966
     81  CA       152.8410  -26.0470   72.3460 C.3   189  VAL189      0.1727
     82  C        151.7840  -27.1420   72.0980 C.2   189  VAL189      0.2616
     83  O        151.6890  -28.0850   72.8690 O.2   189  VAL189     -0.2715
     84  CB       154.2230  -26.5460   71.8310 C.3   189  VAL189      0.0290
     85  CG1      154.1540  -26.8020   70.3450 C.3   189  VAL189      0.0023
     86  CG2      155.3030  -25.5280   72.1210 C.3   189  VAL189      0.0023
     87  N        150.9760  -27.0260   71.0530 N.am  190  GLY190     -0.1955
     88  CA       149.9680  -28.0510   70.8280 C.3   190  GLY190      0.1869
     89  C        149.7710  -28.3540   69.3570 C.2   190  GLY190      0.2309
     90  O        149.5760  -27.4290   68.5710 O.2   190  GLY190     -0.2863
     91  N        146.7110  -30.1790   82.7930 N.3   227  PHE227     -0.1241
     92  CA       147.4900  -28.9610   82.9070 C.3   227  PHE227      0.1605
     93  C        146.6680  -28.0330   83.7660 C.2   227  PHE227      0.2264
     94  O        145.5390  -27.6960   83.4110 O.2   227  PHE227     -0.2867
     95  CB       147.6810  -28.3190   81.5500 C.3   227  PHE227      0.0534
     96  CG       148.7350  -28.9600   80.7160 C.ar  227  PHE227     -0.0203
     97  CD1      150.0590  -28.5830   80.8450 C.ar  227  PHE227     -0.0042
     98  CD2      148.4030  -29.8990   79.7570 C.ar  227  PHE227     -0.0042
     99  CE1      151.0380  -29.1250   80.0190 C.ar  227  PHE227     -0.0003
    100  CE2      149.3740  -30.4440   78.9270 C.ar  227  PHE227     -0.0003
    101  CZ       150.6960  -30.0570   79.0570 C.ar  227  PHE227     -0.0000
    102  N        145.8750  -24.5960   84.8200 N.3   229  TRP229     -0.1241
    103  CA       146.0850  -23.2830   84.2180 C.3   229  TRP229      0.1605
    104  C        144.9480  -22.3600   84.6190 C.2   229  TRP229      0.2264
    105  O        143.7990  -22.7770   84.6550 O.2   229  TRP229     -0.2867
    106  CB       146.1390  -23.4420   82.6830 C.3   229  TRP229      0.0550
    107  CG       146.2250  -22.1760   81.8890 C.ar  229  TRP229      0.0003
    108  CD1      147.3060  -21.3460   81.7640 C.ar  229  TRP229      0.0946
    109  CD2      145.1760  -21.5820   81.1210 C.ar  229  TRP229      0.0152
    110  NE1      146.9890  -20.2670   80.9630 N.ar  229  TRP229     -0.2442
    111  CE2      145.6880  -20.3900   80.5570 C.ar  229  TRP229      0.0810
    112  CE3      143.8490  -21.9400   80.8580 C.ar  229  TRP229      0.0012
    113  CZ2      144.9200  -19.5590   79.7510 C.ar  229  TRP229      0.0191
    114  CZ3      143.0870  -21.1080   80.0560 C.ar  229  TRP229      0.0001
    115  CH2      143.6250  -19.9320   79.5130 C.ar  229  TRP229      0.0015
    116  N        143.0830  -28.5250   81.9900 N.3   234  LEU234     -0.1231
    117  CA       143.0910  -28.7600   80.5480 C.3   234  LEU234      0.1693
    118  C        143.5900  -30.1080   80.0930 C.2   234  LEU234      0.2592
    119  O        144.6490  -30.5550   80.5170 O.2   234  LEU234     -0.2718
    120  CB       143.9200  -27.6850   79.8480 C.3   234  LEU234      0.0284
    121  CG       143.3310  -26.2760   79.8230 C.3   234  LEU234      0.0019
    122  CD1      144.4210  -25.2910   79.4850 C.3   234  LEU234      0.0001
    123  CD2      142.1920  -26.1980   78.8260 C.3   234  LEU234      0.0001
    124  N        142.8200  -30.7290   79.2000 N.am  235  HIS235     -0.1962
    125  CA       143.1340  -32.0340   78.6110 C.3   235  HIS235      0.1772
    126  C        143.1100  -31.8880   77.0750 C.2   235  HIS235      0.2462
    127  O        142.3360  -31.1110   76.5380 O.2   235  HIS235     -0.2730
    128  CB       142.0900  -33.0880   79.0500 C.3   235  HIS235      0.0785
    129  CG       142.0990  -33.4040   80.5230 C.ar  235  HIS235      0.0821
    130  ND1      142.9900  -34.2920   81.0900 N.ar  235  HIS235     -0.2267
    131  CD2      141.3140  -32.9610   81.5380 C.ar  235  HIS235      0.1154
    132  CE1      142.7530  -34.3830   82.3880 C.ar  235  HIS235      0.1986
    133  NE2      141.7400  -33.5850   82.6860 N.ar  235  HIS235     -0.2212
    134  N        143.9470  -32.6530   76.3560 N.am  236  PRO236     -0.2727
    135  CA       144.0250  -32.6100   74.8900 C.3   236  PRO236      0.1402
    136  C        142.6870  -32.7770   74.1610 C.2   236  PRO236      0.2269
    137  O        142.6140  -32.6090   72.9400 O.2   236  PRO236     -0.2865
    138  CB       144.9740  -33.7630   74.5580 C.3   236  PRO236      0.0296
    139  CG       145.8360  -33.8530   75.7540 C.3   236  PRO236      0.0237
    140  CD       144.8380  -33.7020   76.8780 C.3   236  PRO236      0.0939
    141  N        135.5350  -28.9690   73.2070 N.3   318  TYR318     -0.1241
    142  CA       136.1280  -27.8660   72.4720 C.3   318  TYR318      0.1605
    143  C        135.3150  -27.3970   71.2790 C.2   318  TYR318      0.2264
    144  O        134.2510  -27.9430   70.9740 O.2   318  TYR318     -0.2867
    145  CB       137.5200  -28.2480   72.0270 C.3   318  TYR318      0.0534
    146  CG       138.4790  -28.2790   73.1830 C.ar  318  TYR318     -0.0201
    147  CD1      139.7140  -28.9120   73.0790 C.ar  318  TYR318     -0.0009
    148  CD2      138.1610  -27.6560   74.3830 C.ar  318  TYR318     -0.0009
    149  CE1      140.5900  -28.9240   74.1310 C.ar  318  TYR318      0.0417
    150  CE2      139.0420  -27.6630   75.4390 C.ar  318  TYR318      0.0417
    151  CZ       140.2450  -28.3010   75.2990 C.ar  318  TYR318      0.1957
    152  OH       141.1070  -28.3280   76.3430 O.3   318  TYR318     -0.2866
@<TRIPOS>BOND
     1    33    32    1
     2    41    42    1
     3    46    45    1
     4    21    20    1
     5    21    22    1
     6    23    22    1
     7    23    24    1
     8    32    31    1
     9    20    17    1
    10    42    45    1
    11    42    43    1
    12    31    30    1
    13    55    53    1
    14    90    89    2
    15    45    47    1
    16    53    52    1
    17    43    48   am
    18    43    44    2
    19    17    18    1
    20    17    16    1
    21    89    88    1
    22    48    49    1
    23    26    27    1
    24    26    25    1
    25    26    29    1
    26    30    29    1
    27    18    19    2
    28    52    49    1
    29    52    54    1
    30    27    28    2
    31    16    10   am
    32    85    84    1
    33    49    50    1
    34    51    50    2
    35    88    87    1
    36   144   143    2
    37    87    82   am
    38    50    56   am
    39   143   142    1
    40    10    11    2
    41    10     9    1
    42    84    86    1
    43    84    81    1
    44   145   142    1
    45   145   146    1
    46    82    81    1
    47    82    83    2
    48     9     8    1
    49     9    12    1
    50    81    80    1
    51   142   141    1
    52    56    57    1
    53   137   136    2
    54   147   146   ar
    55   147   149   ar
    56   146   148   ar
    57    15    13    1
    58    57    60    1
    59    57    58    1
    60    71    70    2
    61    12    13    1
    62    34    35    1
    63    80    70   am
    64    60    61    1
    65    35    36    1
    66    35    38    1
    67   149   151   ar
    68   136   135    1
    69    13    14    1
    70    70    69    1
    71    40    38    1
    72   148   150   ar
    73   138   135    1
    74   138   139    1
    75    36    37    2
    76    62    61   ar
    77    62    64   ar
    78    58    59    2
    79   135   134    1
    80    38    39    1
    81    61    63   ar
    82   151   150   ar
    83   151   152    1
    84     5     6    1
    85     5     2    1
    86   139   140    1
    87    64    66   ar
    88    69    72    1
    89    69    68    1
    90    72    73    1
    91    63    65   ar
    92   134   140    1
    93   134   126   am
    94     6     7    1
    95     2     3    1
    96     2     1    1
    97   127   126    2
    98    66    65   ar
    99    66    67    1
   100   126   125    1
   101     7     1    1
   102     3     4    2
   103    73    75   ar
   104    73    74   ar
   105    75    77   ar
   106    74    76   ar
   107   125   128    1
   108   125   124    1
   109   123   121    1
   110   100   101   ar
   111   100    98   ar
   112   128   129    1
   113   101    99   ar
   114   124   118   am
   115   122   121    1
   116   115   113   ar
   117   115   114   ar
   118    77    78   ar
   119   113   111   ar
   120    98    96   ar
   121   121   120    1
   122   120   117    1
   123    76    78   ar
   124    99    97   ar
   125   114   112   ar
   126   118   119    2
   127   118   117    1
   128    78    79    1
   129   129   130   ar
   130   129   131   ar
   131   117   116    1
   132   111   110   ar
   133   111   109   ar
   134    96    97   ar
   135    96    95    1
   136   112   109   ar
   137   110   108   ar
   138   130   132   ar
   139   109   107   ar
   140   131   133   ar
   141    95    92    1
   142   108   107   ar
   143   107   106    1
   144   132   133   ar
   145   106   103    1
   146    91    92    1
   147    92    93    1
   148    94    93    2
   149   103   104    1
   150   103   102    1
   151   104   105    2
