@<TRIPOS>MOLECULE
tmp/1s6rA00.pdb
 85 80 0 0 0
SMALL
GASTEIGER

@<TRIPOS>ATOM
      1  N         13.2320   24.0660   24.1370 N.3    62  SER62      -0.1217
      2  CA        12.4530   24.1680   25.3700 C.3    62  SER62       0.1889
      3  C         11.2890   23.1890   25.3460 C.2    62  SER62       0.2288
      4  O         10.4160   23.2330   26.2100 O.2    62  SER62      -0.2866
      5  CB        11.9490   25.5920   25.5950 C.3    62  SER62       0.2089
      6  OG        12.9770   26.5430   25.3820 O.3    62  SER62      -0.2183
      7  N         14.6910   35.3880   31.2460 N.3   117  LEU117     -0.1231
      8  CA        14.5150   34.4200   30.1810 C.3   117  LEU117      0.1693
      9  C         15.7050   33.4680   30.1390 C.2   117  LEU117      0.2591
     10  O         15.5580   32.2570   30.2820 O.2   117  LEU117     -0.2718
     11  CB        14.3630   35.1350   28.8390 C.3   117  LEU117      0.0284
     12  CG        14.0530   34.2450   27.6340 C.3   117  LEU117      0.0019
     13  CD1       12.7330   33.5130   27.8340 C.3   117  LEU117      0.0001
     14  CD2       14.0310   35.0620   26.3530 C.3   117  LEU117      0.0001
     15  N         16.8790   34.0580   29.9320 N.am  118  GLN118     -0.1979
     16  CA        18.1170   33.3040   29.8410 C.3   118  GLN118      0.1601
     17  C         18.8890   33.3740   31.1540 C.2   118  GLN118      0.2287
     18  O         18.9320   34.4350   31.7800 O.2   118  GLN118     -0.2864
     19  CB        19.0270   33.8350   28.7370 C.3   118  GLN118      0.0394
     20  CG        18.3630   34.3350   27.4770 C.3   118  GLN118      0.0908
     21  CD        18.2070   33.2390   26.4380 C.2   118  GLN118      0.2608
     22  OE1       18.4270   33.4560   25.2460 O.2   118  GLN118     -0.2717
     23  NE2       17.8240   32.0570   26.9090 N.am  118  GLN118     -0.0878
     24  N          7.6940   34.0280   30.5380 N.3   148  TYR148     -0.1241
     25  CA         8.3970   32.8110   30.1460 C.3   148  TYR148      0.1605
     26  C          9.8950   32.8850   30.3980 C.2   148  TYR148      0.2264
     27  O         10.6110   33.7240   29.8430 O.2   148  TYR148     -0.2867
     28  CB         8.1250   32.5470   28.6620 C.3   148  TYR148      0.0534
     29  CG         8.6920   31.2580   28.1330 C.ar  148  TYR148     -0.0201
     30  CD1        8.1290   30.0350   28.4770 C.ar  148  TYR148     -0.0009
     31  CD2        9.7950   31.2590   27.2870 C.ar  148  TYR148     -0.0009
     32  CE1        8.6430   28.8430   27.9960 C.ar  148  TYR148      0.0417
     33  CE2       10.3170   30.0750   26.8010 C.ar  148  TYR148      0.0417
     34  CZ         9.7380   28.8770   27.1590 C.ar  148  TYR148      0.1957
     35  OH        10.2580   27.6990   26.6740 O.3   148  TYR148     -0.2866
     36  N         13.7140   30.5750   31.4260 N.3   150  ASN150     -0.1240
     37  CA        14.5440   29.4330   31.7580 C.3   150  ASN150      0.1653
     38  C         14.9000   29.4600   33.2460 C.2   150  ASN150      0.2266
     39  O         14.8340   28.4500   33.9360 O.2   150  ASN150     -0.2867
     40  CB        15.8490   29.4200   30.9690 C.3   150  ASN150      0.1155
     41  CG        15.7010   29.1010   29.4990 C.2   150  ASN150      0.2627
     42  OD1       14.6340   28.6950   29.0440 O.2   150  ASN150     -0.2716
     43  ND2       16.7870   29.2870   28.7560 N.am  150  ASN150     -0.0877
     44  N         23.7730   22.4770   20.1210 N.3   209  VAL209     -0.1231
     45  CA        23.5930   22.9690   21.4780 C.3   209  VAL209      0.1692
     46  C         24.8780   22.8800   22.2980 C.2   209  VAL209      0.2592
     47  O         25.6540   21.9310   22.2160 O.2   209  VAL209     -0.2718
     48  CB        22.4750   22.1980   22.2070 C.3   209  VAL209      0.0266
     49  CG1       23.0480   20.9920   22.9380 C.3   209  VAL209      0.0020
     50  CG2       21.7310   23.1140   23.1680 C.3   209  VAL209      0.0020
     51  N         25.0880   23.9100   23.1100 N.am  210  SER210     -0.1952
     52  CA        26.2660   24.0660   23.9490 C.3   210  SER210      0.1924
     53  C         25.8880   24.2070   25.4200 C.2   210  SER210      0.2314
     54  O         24.8490   24.7690   25.7630 O.2   210  SER210     -0.2863
     55  CB        27.0730   25.2850   23.4860 C.3   210  SER210      0.2116
     56  OG        26.3440   26.0150   22.5080 O.3   210  SER210     -0.2180
     57  N         16.5310   23.1050   28.0030 N.3   219  TYR219     -0.1241
     58  CA        16.6400   22.7610   26.5890 C.3   219  TYR219      0.1605
     59  C         17.6210   21.6220   26.3470 C.2   219  TYR219      0.2264
     60  O         18.1490   21.4780   25.2430 O.2   219  TYR219     -0.2867
     61  CB        17.0760   23.9770   25.7640 C.3   219  TYR219      0.0534
     62  CG        18.2800   24.6880   26.3380 C.ar  219  TYR219     -0.0201
     63  CD1       19.5740   24.3350   25.9700 C.ar  219  TYR219     -0.0009
     64  CD2       18.1030   25.7180   27.2580 C.ar  219  TYR219     -0.0009
     65  CE1       20.6580   25.0000   26.5110 C.ar  219  TYR219      0.0417
     66  CE2       19.1840   26.3870   27.8020 C.ar  219  TYR219      0.0417
     67  CZ        20.4570   26.0190   27.4200 C.ar  219  TYR219      0.1957
     68  OH        21.5340   26.6870   27.9640 O.3   219  TYR219     -0.2866
     69  N         13.0870   25.5680   20.6230 N.3   316  SER316     -0.1202
     70  CA        14.1420   25.9010   19.6700 C.3   316  SER316      0.2020
     71  C         15.5110   25.9870   20.3360 C.2   316  SER316      0.2619
     72  O         15.6050   26.2610   21.5320 O.2   316  SER316     -0.2717
     73  CB        13.7820   27.2170   18.9840 C.3   316  SER316      0.2103
     74  OG        12.3780   27.4250   18.9820 O.3   316  SER316     -0.2182
     75  N         16.5250   25.7420   19.5220 N.am  317  THR317     -0.1938
     76  CA        17.9350   25.8800   19.8240 C.3   317  THR317      0.2028
     77  C         18.6180   26.6830   18.7170 C.2   317  THR317      0.2642
     78  O         17.9370   27.1230   17.7890 O.2   317  THR317     -0.2714
     79  CB        18.6730   24.5360   19.9440 C.3   317  THR317      0.1808
     80  OG1       18.6230   23.8610   18.6780 O.3   317  THR317     -0.2208
     81  CG2       17.9940   23.6520   20.9760 C.3   317  THR317      0.0379
     82  N         19.9300   26.8520   18.8260 N.am  318  GLY318     -0.1954
     83  CA        20.6790   27.6220   17.8480 C.3   318  GLY318      0.1869
     84  C         20.3710   27.2450   16.4140 C.2   318  GLY318      0.2309
     85  O         20.1420   28.1070   15.5640 O.2   318  GLY318     -0.2863
@<TRIPOS>BOND
     1    85    84    2
     2    84    83    1
     3    78    77    2
     4    83    82    1
     5    80    79    1
     6    77    82   am
     7    77    76    1
     8    74    73    1
     9    73    70    1
    10    75    76    1
    11    75    71   am
    12    70    71    1
    13    70    69    1
    14    76    79    1
    15    79    81    1
    16    44    45    1
    17    71    72    2
    18    45    48    1
    19    45    46    1
    20    48    49    1
    21    48    50    1
    22    47    46    2
    23    46    51   am
    24    56    55    1
    25    51    52    1
    26    55    52    1
    27    52    53    1
    28     1     2    1
    29    60    59    2
    30    22    21    2
    31     3     2    1
    32     3     4    2
    33     2     5    1
    34     6     5    1
    35    53    54    2
    36    61    62    1
    37    61    58    1
    38    63    62   ar
    39    63    65   ar
    40    62    64   ar
    41    59    58    1
    42    14    12    1
    43    21    23   am
    44    21    20    1
    45    65    67   ar
    46    58    57    1
    47    35    34    1
    48    33    34   ar
    49    33    31   ar
    50    34    32   ar
    51    64    66   ar
    52    31    29   ar
    53    67    66   ar
    54    67    68    1
    55    20    19    1
    56    12    13    1
    57    12    11    1
    58    32    30   ar
    59    29    30   ar
    60    29    28    1
    61    28    25    1
    62    19    16    1
    63    43    41   am
    64    11     8    1
    65    42    41    2
    66    41    40    1
    67    16    15    1
    68    16    17    1
    69    27    26    2
    70    15     9   am
    71     9     8    1
    72     9    10    2
    73    25    26    1
    74    25    24    1
    75     8     7    1
    76    40    37    1
    77    17    18    2
    78    36    37    1
    79    37    38    1
    80    38    39    2
