@<TRIPOS>MOLECULE
tmp/1s70A00.pdb
 115 112 0 0 0
SMALL
GASTEIGER

@<TRIPOS>ATOM
      1  N          0.8730   28.3300  100.0710 N.3    19  VAL19      -0.1231
      2  CA         1.1170   29.6970  100.4990 C.3    19  VAL19       0.1692
      3  C          0.3870   30.6830   99.6020 C.2    19  VAL19       0.2592
      4  O          0.5810   31.8870   99.7150 O.2    19  VAL19      -0.2718
      5  CB         2.6170   30.0320  100.5280 C.3    19  VAL19       0.0266
      6  CG1        3.2960   29.2780  101.6600 C.3    19  VAL19       0.0020
      7  CG2        3.2480   29.6720   99.2070 C.3    19  VAL19       0.0020
      8  N         -0.4480   30.1700   98.7020 N.am   20  ARG20      -0.1966
      9  CA        -1.2350   31.0380   97.8330 C.3    20  ARG20       0.1729
     10  C         -2.1940   31.7470   98.7730 C.2    20  ARG20       0.2617
     11  O         -3.0750   31.1100   99.3620 O.2    20  ARG20      -0.2715
     12  CB        -2.0420   30.2270   96.8150 C.3    20  ARG20       0.0348
     13  CG        -1.3060   29.8550   95.5510 C.3    20  ARG20       0.0492
     14  CD        -2.1170   28.8470   94.7350 C.3    20  ARG20       0.2205
     15  NE        -3.4310   29.3530   94.3480 N.pl3  20  ARG20      -0.0865
     16  CZ        -4.3570   28.6300   93.7170 C.cat  20  ARG20       0.5346
     17  NH1       -4.1230   27.3600   93.3940 N.pl3  20  ARG20       0.1354
     18  NH2       -5.5240   29.1740   93.4000 N.pl3  20  ARG20       0.1354
     19  N         -2.0180   33.0540   98.9330 N.am   21  GLY21      -0.1940
     20  CA        -2.8940   33.7820   99.8250 C.3    21  GLY21       0.2014
     21  C         -2.1970   34.1990  101.1030 C.2    21  GLY21       0.2639
     22  O         -2.6520   35.1070  101.7910 O.2    21  GLY21      -0.2714
     23  N         -1.1060   33.5210  101.4420 N.am   22  CYS22      -0.1953
     24  CA        -0.3350   33.8700  102.6360 C.3    22  CYS22       0.1843
     25  C          0.5700   35.0400  102.2430 C.2    22  CYS22       0.2625
     26  O          0.7920   35.2780  101.0530 O.2    22  CYS22      -0.2714
     27  CB         0.5210   32.6840  103.0990 C.3    22  CYS22       0.0997
     28  SG        -0.4020   31.3080  103.8130 S.3    22  CYS22      -0.0797
     29  N          1.0900   35.7690  103.2270 N.am   23  ARG23      -0.1964
     30  CA         1.9510   36.9060  102.9250 C.3    23  ARG23       0.1714
     31  C          3.1850   36.4620  102.1470 C.2    23  ARG23       0.2458
     32  O          3.7220   35.3860  102.3870 O.2    23  ARG23      -0.2730
     33  CB         2.3450   37.6430  104.2220 C.3    23  ARG23       0.0347
     34  CG         3.1690   36.8430  105.2100 C.3    23  ARG23       0.0492
     35  CD         4.6490   37.1560  105.0610 C.3    23  ARG23       0.2205
     36  NE         5.4870   36.3400  105.9390 N.pl3  23  ARG23      -0.0865
     37  CZ         6.8170   36.3950  105.9690 C.cat  23  ARG23       0.5346
     38  NH1        7.4780   37.2270  105.1720 N.pl3  23  ARG23       0.1354
     39  NH2        7.4930   35.6160  106.7980 N.pl3  23  ARG23       0.1354
     40  N          3.6330   37.2810  101.1790 N.am   24  PRO24      -0.2716
     41  CA         4.8110   36.9570  100.3670 C.3    24  PRO24       0.1536
     42  C          6.0270   36.7080  101.2420 C.2    24  PRO24       0.2599
     43  O          6.1730   37.3310  102.2970 O.2    24  PRO24      -0.2715
     44  CB         4.9750   38.1920   99.4910 C.3    24  PRO24       0.0310
     45  CG         3.5600   38.6460   99.3040 C.3    24  PRO24       0.0237
     46  CD         3.0030   38.5250  100.7030 C.3    24  PRO24       0.0939
     47  N          6.8970   35.8020  100.8050 N.am   25  GLY25      -0.1941
     48  CA         8.0800   35.4910  101.5880 C.3    25  GLY25       0.2014
     49  C          7.8100   34.3790  102.5860 C.2    25  GLY25       0.2638
     50  O          8.7190   33.9120  103.2690 O.2    25  GLY25      -0.2714
     51  N          6.5500   33.9640  102.6790 N.am   26  LYS26      -0.1977
     52  CA         6.1680   32.8850  103.5750 C.3    26  LYS26       0.1596
     53  C          6.7440   31.6260  102.9490 C.2    26  LYS26       0.2287
     54  O          6.4730   31.2990  101.7940 O.2    26  LYS26      -0.2864
     55  CB         4.6460   32.7820  103.6790 C.3    26  LYS26       0.0298
     56  CG         4.1420   32.0820  104.9370 C.3    26  LYS26       0.0038
     57  CD         4.4650   30.5970  104.9550 C.3    26  LYS26       0.0206
     58  CE         3.9660   29.9330  106.2340 C.3    26  LYS26       0.1093
     59  NZ         4.2330   28.4610  106.2530 N.3    26  LYS26      -0.1314
     60  N          8.7040   34.1660   93.5800 N.3    69  TYR69      -0.1227
     61  CA         7.6440   33.1780   93.7430 C.3    69  TYR69       0.1736
     62  C          6.2430   33.7510   93.7580 C.2    69  TYR69       0.2596
     63  O          5.4010   33.3450   92.9640 O.2    69  TYR69      -0.2718
     64  CB         7.8690   32.3630   95.0190 C.3    69  TYR69       0.0548
     65  CG         7.0440   31.0950   95.0730 C.ar   69  TYR69      -0.0200
     66  CD1        6.9380   30.2600   93.9640 C.ar   69  TYR69      -0.0009
     67  CD2        6.3750   30.7290   96.2260 C.ar   69  TYR69      -0.0009
     68  CE1        6.1860   29.0990   94.0040 C.ar   69  TYR69       0.0417
     69  CE2        5.6190   29.5610   96.2750 C.ar   69  TYR69       0.0417
     70  CZ         5.5310   28.7550   95.1580 C.ar   69  TYR69       0.1957
     71  OH         4.7900   27.5990   95.1790 O.3    69  TYR69      -0.2866
     72  N          5.9880   34.6900   94.6610 N.am   70  THR70      -0.1953
     73  CA         4.6620   35.3050   94.7630 C.3    70  THR70       0.1897
     74  C          4.1020   35.6920   93.3970 C.2    70  THR70       0.2313
     75  O          2.9020   35.5630   93.1380 O.2    70  THR70      -0.2863
     76  CB         4.6960   36.5550   95.6640 C.3    70  THR70       0.1794
     77  OG1        4.8720   36.1540   97.0310 O.3    70  THR70      -0.2208
     78  CG2        3.4090   37.3440   95.5250 C.3    70  THR70       0.0378
     79  N          3.3770   32.4790   91.0770 N.3    73  LEU73      -0.1231
     80  CA         2.0730   31.9350   91.4440 C.3    73  LEU73       0.1693
     81  C          1.0100   32.7620   90.7180 C.2    73  LEU73       0.2591
     82  O          0.0220   32.2210   90.2040 O.2    73  LEU73      -0.2718
     83  CB         1.8590   32.0380   92.9550 C.3    73  LEU73       0.0284
     84  CG         2.6490   31.0470   93.8050 C.3    73  LEU73       0.0019
     85  CD1        2.6480   31.4640   95.2630 C.3    73  LEU73       0.0001
     86  CD2        2.0410   29.6810   93.6280 C.3    73  LEU73       0.0001
     87  N          1.2240   34.0760   90.6740 N.am   74  ARG74      -0.1980
     88  CA         0.2920   34.9660   89.9910 C.3    74  ARG74       0.1597
     89  C          0.2450   34.6950   88.4890 C.2    74  ARG74       0.2287
     90  O         -0.7990   34.8460   87.8770 O.2    74  ARG74      -0.2864
     91  CB         0.6480   36.4380   90.2470 C.3    74  ARG74       0.0334
     92  CG         0.5990   36.8290   91.7070 C.3    74  ARG74       0.0492
     93  CD         0.1930   38.2730   91.8630 C.3    74  ARG74       0.2205
     94  NE         1.2120   39.1890   91.3940 N.pl3  74  ARG74      -0.0865
     95  CZ         0.9760   40.1600   90.5270 C.cat  74  ARG74       0.5346
     96  NH1       -0.2370   40.3210   90.0380 N.pl3  74  ARG74       0.1354
     97  NH2        1.9420   40.9850   90.1720 N.pl3  74  ARG74       0.1354
     98  N         -1.9190   31.7420   88.0010 N.3    77  GLU77      -0.1245
     99  CA        -3.2960   32.0880   88.3380 C.3    77  GLU77       0.1567
    100  C         -3.9450   32.8590   87.1980 C.2    77  GLU77       0.2260
    101  O         -5.1540   33.0590   87.1910 O.2    77  GLU77      -0.2867
    102  CB        -3.3350   32.9390   89.6080 C.3    77  GLU77       0.0388
    103  CG        -3.6460   32.1560   90.8640 C.3    77  GLU77       0.1160
    104  CD        -3.3570   32.9400   92.1380 C.2    77  GLU77       0.3649
    105  OE1       -3.7300   34.1400   92.1980 O.co2  77  GLU77      -0.2457
    106  OE2       -2.7650   32.3480   93.0780 O.co2  77  GLU77      -0.2457
    107  N         12.5110   34.3010   96.8120 N.3    99  GLN99      -0.1245
    108  CA        12.2700   32.8640   96.8690 C.3    99  GLN99       0.1566
    109  C         12.6430   32.0620   95.6210 C.2    99  GLN99       0.2260
    110  O         11.7740   31.5930   94.8950 O.2    99  GLN99      -0.2867
    111  CB        10.8010   32.6110   97.2030 C.3    99  GLN99       0.0367
    112  CG        10.3820   33.1090   98.5830 C.3    99  GLN99       0.0905
    113  CD         8.8820   33.1980   98.7390 C.2    99  GLN99       0.2608
    114  OE1        8.2180   33.9940   98.0700 O.2    99  GLN99      -0.2717
    115  NE2        8.3360   32.3790   99.6250 N.am   99  GLN99      -0.0878
@<TRIPOS>BOND
     1   101   100    2
     2   100    99    1
     3    90    89    2
     4    98    99    1
     5    99   102    1
     6    89    88    1
     7   102   103    1
     8    88    91    1
     9    88    87    1
    10    96    95    1
    11    97    95    1
    12    82    81    2
    13    91    92    1
    14    95    94    2
    15    87    81   am
    16    81    80    1
    17   103   104    1
    18    79    80    1
    19    94    93    1
    20    80    83    1
    21    92    93    1
    22   104   105   ar
    23   104   106   ar
    24    83    84    1
    25    63    62    2
    26    75    74    2
    27    17    16    1
    28    74    73    1
    29    18    16    1
    30    60    61    1
    31    86    84    1
    32    16    15    2
    33    61    62    1
    34    61    64    1
    35    62    72   am
    36    84    85    1
    37    66    68   ar
    38    66    65   ar
    39    68    70   ar
    40    15    14    1
    41    72    73    1
    42    14    13    1
    43    73    76    1
    44   110   109    2
    45    64    65    1
    46    65    67   ar
    47    70    71    1
    48    70    69   ar
    49    78    76    1
    50    13    12    1
    51   109   108    1
    52    76    77    1
    53    67    69   ar
    54   107   108    1
    55    12     9    1
    56   108   111    1
    57   111   112    1
    58     9     8    1
    59     9    10    1
    60   114   113    2
    61   112   113    1
    62     8     3   am
    63   113   115   am
    64    10    19   am
    65    10    11    2
    66    19    20    1
    67     7     5    1
    68    45    44    1
    69    45    46    1
    70    44    41    1
    71     3     4    2
    72     3     2    1
    73    20    21    1
    74     1     2    1
    75    41    40    1
    76    41    42    1
    77     2     5    1
    78     5     6    1
    79    46    40    1
    80    47    42   am
    81    47    48    1
    82    26    25    2
    83    21    23   am
    84    21    22    2
    85    40    31   am
    86    42    43    2
    87    23    24    1
    88    48    49    1
    89    54    53    2
    90    31    32    2
    91    31    30    1
    92    25    24    1
    93    25    29   am
    94    49    51   am
    95    49    50    2
    96    24    27    1
    97    51    52    1
    98    30    29    1
    99    30    33    1
   100    53    52    1
   101    27    28    1
   102    52    55    1
   103    55    56    1
   104    33    34    1
   105    56    57    1
   106    57    58    1
   107    35    34    1
   108    35    36    1
   109    38    37    1
   110    36    37    2
   111    37    39    1
   112    58    59    1
