@<TRIPOS>MOLECULE
tmp/1s76D00.pdb
 175 168 0 0 0
SMALL
GASTEIGER

@<TRIPOS>ATOM
      1  N        -34.7450   21.1660   50.0030 N.3   389  ARG389     -0.1245
      2  CA       -34.5470   19.7200   50.0490 C.3   389  ARG389      0.1563
      3  C        -33.1180   19.3600   50.4250 C.2   389  ARG389      0.2260
      4  O        -32.1570   20.0120   49.9960 O.2   389  ARG389     -0.2867
      5  CB       -34.9370   19.0700   48.7220 C.3   389  ARG389      0.0307
      6  CG       -36.4320   19.2080   48.4160 C.3   389  ARG389      0.0489
      7  CD       -37.1140   17.8900   48.0410 C.3   389  ARG389      0.2205
      8  NE       -36.9640   17.5830   46.6230 N.pl3 389  ARG389     -0.0865
      9  CZ       -37.7260   16.7140   45.9590 C.cat 389  ARG389      0.5346
     10  NH1      -38.7010   16.0520   46.5790 N.pl3 389  ARG389      0.1354
     11  NH2      -37.5300   16.5180   44.6630 N.pl3 389  ARG389      0.1354
     12  N        -47.1970   -3.2850   47.2370 N.3   436  LYS436     -0.1245
     13  CA       -48.4970   -2.6820   46.9470 C.3   436  LYS436      0.1561
     14  C        -49.6410   -3.6000   47.3720 C.2   436  LYS436      0.2260
     15  O        -50.6710   -3.6870   46.7040 O.2   436  LYS436     -0.2867
     16  CB       -48.6200   -2.3430   45.4570 C.3   436  LYS436      0.0271
     17  CG       -48.5840   -0.8390   45.1630 C.3   436  LYS436      0.0035
     18  CD       -47.1790   -0.2490   45.2410 C.3   436  LYS436      0.0206
     19  CE       -46.3560   -0.5810   43.9900 C.3   436  LYS436      0.1093
     20  NZ       -46.2200   -2.0490   43.7320 N.3   436  LYS436     -0.1314
     21  N        -41.1220    4.8340   52.6350 N.3   501  ASP501     -0.1225
     22  CA       -41.2950    5.8390   51.5880 C.3   501  ASP501      0.1805
     23  C        -42.7440    6.1500   51.2020 C.2   501  ASP501      0.2598
     24  O        -43.5090    5.2510   50.8410 O.2   501  ASP501     -0.2718
     25  CB       -40.5200    5.4140   50.3400 C.3   501  ASP501      0.1424
     26  CG       -40.7130    6.3700   49.1930 C.2   501  ASP501      0.3668
     27  OD1      -40.0680    7.4390   49.1910 O.co2 501  ASP501     -0.2456
     28  OD2      -41.5260    6.0500   48.3030 O.co2 501  ASP501     -0.2456
     29  N        -43.1010    7.4320   51.2520 N.am  502  GLY502     -0.1942
     30  CA       -44.4530    7.8450   50.9160 C.3   502  GLY502      0.2014
     31  C        -44.8740    7.4380   49.5200 C.2   502  GLY502      0.2640
     32  O        -44.0290    7.1860   48.6740 O.2   502  GLY502     -0.2714
     33  N        -46.1790    7.3620   49.2840 N.am  503  SER503     -0.1935
     34  CA       -46.6970    6.9850   47.9720 C.3   503  SER503      0.2055
     35  C        -47.1960    8.2320   47.2420 C.2   503  SER503      0.2643
     36  O        -48.3190    8.7000   47.4710 O.2   503  SER503     -0.2714
     37  CB       -47.8330    5.9490   48.1100 C.3   503  SER503      0.2130
     38  OG       -48.8970    6.4250   48.9190 O.3   503  SER503     -0.2179
     39  N        -46.3450    8.7650   46.3670 N.am  504  CYS504     -0.1953
     40  CA       -46.6640    9.9640   45.6010 C.3   504  CYS504      0.1843
     41  C        -46.8020   11.1580   46.5400 C.2   504  CYS504      0.2626
     42  O        -47.8590   11.7770   46.6110 O.2   504  CYS504     -0.2714
     43  CB       -47.9680    9.7670   44.8180 C.3   504  CYS504      0.0997
     44  SG       -48.3610   11.1190   43.6900 S.3   504  CYS504     -0.0797
     45  N        -45.7260   11.4780   47.2540 N.am  505  SER505     -0.1936
     46  CA       -45.7300   12.5940   48.2010 C.3   505  SER505      0.2055
     47  C        -46.2740   13.8660   47.5620 C.2   505  SER505      0.2643
     48  O        -46.8300   14.7300   48.2530 O.2   505  SER505     -0.2714
     49  CB       -44.3160   12.8510   48.7440 C.3   505  SER505      0.2130
     50  OG       -43.4140   13.1670   47.7040 O.3   505  SER505     -0.2179
     51  N        -46.1080   13.9750   46.2440 N.am  506  GLY506     -0.1954
     52  CA       -46.6040   15.1330   45.5200 C.3   506  GLY506      0.1869
     53  C        -48.0780   15.3620   45.8020 C.2   506  GLY506      0.2309
     54  O        -48.4420   16.3350   46.4610 O.2   506  GLY506     -0.2863
     55  N        -51.3080    5.2700   40.7390 N.3   535  TYR535     -0.1241
     56  CA       -50.7910    4.9520   39.4090 C.3   535  TYR535      0.1605
     57  C        -51.5560    3.7590   38.8610 C.2   535  TYR535      0.2264
     58  O        -51.8640    3.6940   37.6750 O.2   535  TYR535     -0.2867
     59  CB       -49.2930    4.6390   39.4590 C.3   535  TYR535      0.0534
     60  CG       -48.4510    5.7480   40.0540 C.ar  535  TYR535     -0.0201
     61  CD1      -48.6490    7.0780   39.6940 C.ar  535  TYR535     -0.0009
     62  CD2      -47.4540    5.4610   40.9770 C.ar  535  TYR535     -0.0009
     63  CE1      -47.8710    8.0960   40.2470 C.ar  535  TYR535      0.0417
     64  CE2      -46.6750    6.4600   41.5300 C.ar  535  TYR535      0.0417
     65  CZ       -46.8830    7.7730   41.1680 C.ar  535  TYR535      0.1957
     66  OH       -46.1050    8.7530   41.7340 O.3   535  TYR535     -0.2866
     67  N        -48.9510    0.0500   35.6720 N.3   573  ARG573     -0.1245
     68  CA       -48.5850    1.2360   36.4420 C.3   573  ARG573      0.1563
     69  C        -47.2250    1.7770   36.0270 C.2   573  ARG573      0.2260
     70  O        -46.9410    2.9640   36.2110 O.2   573  ARG573     -0.2867
     71  CB       -48.5780    0.9280   37.9410 C.3   573  ARG573      0.0307
     72  CG       -47.4650    0.0120   38.4010 C.3   573  ARG573      0.0489
     73  CD       -47.6630   -0.3680   39.8600 C.3   573  ARG573      0.2205
     74  NE       -47.7570    0.8070   40.7240 N.pl3 573  ARG573     -0.0865
     75  CZ       -46.7440    1.6240   41.0050 C.cat 573  ARG573      0.5346
     76  NH1      -45.5390    1.4070   40.4960 N.pl3 573  ARG573      0.1354
     77  NH2      -46.9380    2.6630   41.8010 N.pl3 573  ARG573      0.1354
     78  N        -47.2420    6.4850   35.0760 N.3   577  LYS577     -0.1231
     79  CA       -46.7810    6.8920   36.4010 C.3   577  LYS577      0.1693
     80  C        -46.1520    8.2820   36.4670 C.2   577  LYS577      0.2591
     81  O        -46.6430    9.1370   37.2000 O.2   577  LYS577     -0.2718
     82  CB       -45.8350    5.8190   36.9940 C.3   577  LYS577      0.0285
     83  CG       -44.3300    6.0530   36.8650 C.3   577  LYS577      0.0035
     84  CD       -43.8590    7.1600   37.7990 C.3   577  LYS577      0.0206
     85  CE       -42.3470    7.2730   37.8300 C.3   577  LYS577      0.1093
     86  NZ       -41.7580    6.1380   38.5980 N.3   577  LYS577     -0.1314
     87  N        -45.0820    8.5190   35.7130 N.am  578  ARG578     -0.1980
     88  CA       -44.4360    9.8250   35.7440 C.3   578  ARG578      0.1597
     89  C        -45.4750   10.8740   35.3570 C.2   578  ARG578      0.2287
     90  O        -45.4970   11.9760   35.9070 O.2   578  ARG578     -0.2864
     91  CB       -43.2530    9.8730   34.7680 C.3   578  ARG578      0.0334
     92  CG       -42.4050   11.1380   34.8850 C.3   578  ARG578      0.0492
     93  CD       -41.3300   11.2160   33.8010 C.3   578  ARG578      0.2205
     94  NE       -40.4860   12.4060   33.9270 N.pl3 578  ARG578     -0.0865
     95  CZ       -39.5810   12.7860   33.0270 C.cat 578  ARG578      0.5346
     96  NH1      -39.3980   12.0730   31.9270 N.pl3 578  ARG578      0.1354
     97  NH2      -38.8550   13.8770   33.2270 N.pl3 578  ARG578      0.1354
     98  N        -47.7400   11.8810   38.4460 N.3   581  MET581     -0.1230
     99  CA       -47.1780   12.7080   39.5140 C.3   581  MET581      0.1702
    100  C        -46.7750   14.1220   39.0910 C.2   581  MET581      0.2593
    101  O        -46.6020   14.9980   39.9440 O.2   581  MET581     -0.2718
    102  CB       -45.9690   12.0080   40.1530 C.3   581  MET581      0.0401
    103  CG       -44.6950   11.9980   39.3030 C.3   581  MET581      0.0596
    104  SD       -43.2050   11.5130   40.2380 S.3   581  MET581     -0.1393
    105  CE       -42.9830    9.8480   39.7050 C.3   581  MET581      0.0692
    106  N        -46.6320   14.3460   37.7850 N.am  582  THR582     -0.1953
    107  CA       -46.2330   15.6560   37.2660 C.3   582  THR582      0.1897
    108  C        -47.3870   16.5530   36.8110 C.2   582  THR582      0.2313
    109  O        -47.1890   17.7460   36.5710 O.2   582  THR582     -0.2863
    110  CB       -45.2570   15.5110   36.0870 C.3   582  THR582      0.1794
    111  OG1      -45.8000   14.5950   35.1320 O.3   582  THR582     -0.2208
    112  CG2      -43.9070   15.0030   36.5650 C.3   582  THR582      0.0378
    113  N        -47.9620   19.3200   38.8230 N.3   585  TYR585     -0.1241
    114  CA       -46.7580   20.1460   38.7690 C.3   585  TYR585      0.1605
    115  C        -46.7190   21.0170   37.5200 C.2   585  TYR585      0.2264
    116  O        -45.8630   21.9010   37.4090 O.2   585  TYR585     -0.2867
    117  CB       -45.4820   19.2900   38.8130 C.3   585  TYR585      0.0534
    118  CG       -45.2070   18.6240   40.1490 C.ar  585  TYR585     -0.0201
    119  CD1      -45.7730   19.1130   41.3260 C.ar  585  TYR585     -0.0009
    120  CD2      -44.3660   17.5130   40.2340 C.ar  585  TYR585     -0.0009
    121  CE1      -45.5110   18.5110   42.5470 C.ar  585  TYR585      0.0417
    122  CE2      -44.0960   16.9060   41.4510 C.ar  585  TYR585      0.0417
    123  CZ       -44.6710   17.4060   42.6060 C.ar  585  TYR585      0.1957
    124  OH       -44.4070   16.8030   43.8240 O.3   585  TYR585     -0.2866
    125  N        -44.2190   22.9410   41.2050 N.3   726  PRO726     -0.2116
    126  CA       -43.2880   21.9040   41.6730 C.3   726  PRO726      0.1372
    127  C        -42.3630   22.3580   42.8030 C.2   726  PRO726      0.2244
    128  O        -42.2160   21.6460   43.7990 O.2   726  PRO726     -0.2868
    129  CB       -42.5260   21.5020   40.4010 C.3   726  PRO726      0.0268
    130  CG       -42.7430   22.6770   39.4560 C.3   726  PRO726      0.0207
    131  CD       -44.1550   23.0920   39.7420 C.3   726  PRO726      0.0892
    132  N        -42.2390   20.7690   46.7820 N.3   730  HIS730     -0.1241
    133  CA       -40.9350   20.1810   47.0600 C.3   730  HIS730      0.1621
    134  C        -40.4480   20.7700   48.3620 C.2   730  HIS730      0.2264
    135  O        -39.9480   20.0600   49.2300 O.2   730  HIS730     -0.2867
    136  CB       -39.9360   20.5120   45.9450 C.3   730  HIS730      0.0745
    137  CG       -40.0680   19.6420   44.7350 C.ar  730  HIS730      0.0817
    138  ND1      -40.3320   18.2930   44.8160 N.ar  730  HIS730     -0.2268
    139  CD2      -39.9310   19.9190   43.4160 C.ar  730  HIS730      0.1154
    140  CE1      -40.3530   17.7750   43.6010 C.ar  730  HIS730      0.1986
    141  NE2      -40.1110   18.7390   42.7340 N.ar  730  HIS730     -0.2212
    142  N        -42.3040   19.1950   51.2160 N.3   733  ASP733     -0.1239
    143  CA       -41.8750   17.8800   51.6590 C.3   733  ASP733      0.1674
    144  C        -40.5090   17.9890   52.3280 C.2   733  ASP733      0.2266
    145  O        -40.2410   17.3230   53.3210 O.2   733  ASP733     -0.2867
    146  CB       -41.8250   16.8920   50.4760 C.3   733  ASP733      0.1410
    147  CG       -40.7500   17.2370   49.4450 C.2   733  ASP733      0.3668
    148  OD1      -39.5380   17.1650   49.7610 O.co2 733  ASP733     -0.2456
    149  OD2      -41.1210   17.5740   48.3020 O.co2 733  ASP733     -0.2456
    150  N        -34.1710   10.3600   51.9520 N.3   756  ILE756     -0.1231
    151  CA       -34.1100   10.4660   50.5040 C.3   756  ILE756      0.1692
    152  C        -35.2720   11.2900   49.9440 C.2   756  ILE756      0.2592
    153  O        -35.9900   10.8480   49.0420 O.2   756  ILE756     -0.2718
    154  CB       -34.0950    9.0890   49.8350 C.3   756  ILE756      0.0266
    155  CG1      -33.0340    8.2060   50.4860 C.3   756  ILE756      0.0019
    156  CG2      -33.7510    9.2500   48.3430 C.3   756  ILE756      0.0020
    157  CD1      -32.9940    6.8120   49.9140 C.3   756  ILE756      0.0001
    158  N        -35.4350   12.4970   50.4860 N.am  757  HIS757     -0.1962
    159  CA       -36.4890   13.4180   50.0700 C.3   757  HIS757      0.1787
    160  C        -37.8640   13.0450   50.6110 C.2   757  HIS757      0.2620
    161  O        -38.3510   13.6770   51.5490 O.2   757  HIS757     -0.2715
    162  CB       -36.5000   13.5180   48.5510 C.3   757  HIS757      0.0785
    163  CG       -35.2410   14.1000   47.9970 C.ar  757  HIS757      0.0821
    164  ND1      -34.7750   15.3420   48.3700 N.ar  757  HIS757     -0.2267
    165  CD2      -34.3350   13.6040   47.1200 C.ar  757  HIS757      0.1154
    166  CE1      -33.6360   15.5880   47.7450 C.ar  757  HIS757      0.1986
    167  NE2      -33.3470   14.5490   46.9810 N.ar  757  HIS757     -0.2212
    168  N        -38.5030   12.0370   50.0210 N.am  758  ASP758     -0.1971
    169  CA       -39.8010   11.6030   50.5270 C.3   758  ASP758      0.1709
    170  C        -39.7190   10.1580   51.0100 C.2   758  ASP758      0.2293
    171  O        -40.7110    9.4390   51.0460 O.2   758  ASP758     -0.2864
    172  CB       -40.9110   11.7780   49.4770 C.3   758  ASP758      0.1436
    173  CG       -40.7590   10.8520   48.2860 C.2   758  ASP758      0.3671
    174  OD1      -41.7900   10.6080   47.6160 O.co2 758  ASP758     -0.2456
    175  OD2      -39.6300   10.3820   48.0170 O.co2 758  ASP758     -0.2456
@<TRIPOS>BOND
     1    96    95    1
     2    95    97    1
     3    95    94    2
     4    93    94    1
     5    93    92    1
     6    91    92    1
     7    91    88    1
     8    78    79    1
     9   111   110    1
    10    89    88    1
    11    89    90    2
    12    67    68    1
    13    87    88    1
    14    87    80   am
    15    69    70    2
    16    69    68    1
    17   110   112    1
    18   110   107    1
    19    79    80    1
    20    79    82    1
    21    68    71    1
    22    80    81    2
    23   109   108    2
    24   108   107    1
    25    83    82    1
    26    83    84    1
    27   107   106    1
    28   116   115    2
    29   115   114    1
    30    58    57    2
    31   106   100   am
    32    84    85    1
    33    85    86    1
    34    71    72    1
    35    72    73    1
    36    98    99    1
    37   114   117    1
    38   114   113    1
    39   117   118    1
    40    57    56    1
    41   100    99    1
    42   100   101    2
    43   103   102    1
    44   103   104    1
    45    56    59    1
    46    56    55    1
    47   130   131    1
    48   130   129    1
    49    59    60    1
    50    99   102    1
    51    61    60   ar
    52    61    63   ar
    53   105   104    1
    54   131   125    1
    55    73    74    1
    56    60    62   ar
    57   118   120   ar
    58   118   119   ar
    59   120   122   ar
    60    63    65   ar
    61   129   126    1
    62    76    75    1
    63    74    75    2
    64    62    64   ar
    65    75    77    1
    66    65    64   ar
    67    65    66    1
    68   125   126    1
    69   119   121   ar
    70   122   123   ar
    71   126   127    1
    72   121   123   ar
    73   123   124    1
    74   141   139   ar
    75   141   140   ar
    76   127   128    2
    77   139   137   ar
    78   140   138   ar
    79    44    43    1
    80    20    19    1
    81    19    18    1
    82    11     9    1
    83   137   138   ar
    84   137   136    1
    85    43    40    1
    86    17    18    1
    87    17    16    1
    88    16    13    1
    89    52    53    1
    90    52    51    1
    91    40    39    1
    92    40    41    1
    93    53    54    2
    94   136   133    1
    95     9    10    1
    96     9     8    2
    97    51    47   am
    98    39    35   am
    99    41    42    2
   100    41    45   am
   101     8     7    1
   102    15    14    2
   103   132   133    1
   104    13    12    1
   105    13    14    1
   106   167   165   ar
   107   167   166   ar
   108   133   134    1
   109   165   163   ar
   110    35    36    2
   111    35    34    1
   112    45    46    1
   113    47    46    1
   114    47    48    2
   115   174   173   ar
   116    50    49    1
   117   166   164   ar
   118    34    37    1
   119    34    33    1
   120   163   164   ar
   121   163   162    1
   122   175   173   ar
   123     7     6    1
   124    37    38    1
   125    46    49    1
   126   173   172    1
   127   149   147   ar
   128    28    26   ar
   129   156   154    1
   130   134   135    2
   131     6     5    1
   132   162   159    1
   133    32    31    2
   134     5     2    1
   135   153   152    2
   136    27    26   ar
   137    26    25    1
   138    33    31   am
   139   147   148   ar
   140   147   146    1
   141   172   169    1
   142    31    30    1
   143   154   155    1
   144   154   151    1
   145   157   155    1
   146   152   158   am
   147   152   151    1
   148     4     3    2
   149     1     2    1
   150   168   169    1
   151   168   160   am
   152     2     3    1
   153   159   158    1
   154   159   160    1
   155    25    22    1
   156   146   143    1
   157   151   150    1
   158   169   170    1
   159   160   161    2
   160    24    23    2
   161    30    29    1
   162   170   171    2
   163    23    29   am
   164    23    22    1
   165   142   143    1
   166    22    21    1
   167   143   144    1
   168   144   145    2
