@<TRIPOS>MOLECULE
tmp/1s77D00.pdb
 97 90 0 0 0
SMALL
GASTEIGER

@<TRIPOS>ATOM
      1  N        -44.8950   -4.7470   47.5060 N.3   430  ASP430     -0.1225
      2  CA       -45.1790   -3.5900   48.3500 C.3   430  ASP430      0.1805
      3  C        -46.5090   -2.8930   48.1190 C.2   430  ASP430      0.2597
      4  O        -46.8330   -1.9310   48.8200 O.2   430  ASP430     -0.2718
      5  CB       -44.0750   -2.5610   48.1820 C.3   430  ASP430      0.1424
      6  CG       -43.7360   -2.3200   46.7280 C.2   430  ASP430      0.3668
      7  OD1      -44.6510   -2.4310   45.8770 O.co2 430  ASP430     -0.2456
      8  OD2      -42.5540   -2.0120   46.4340 O.co2 430  ASP430     -0.2456
      9  N        -47.2680   -3.3470   47.1280 N.am  431  LYS431     -0.1979
     10  CA       -48.5580   -2.7390   46.8470 C.3   431  LYS431      0.1596
     11  C        -49.6260   -3.6690   47.3870 C.2   431  LYS431      0.2287
     12  O        -50.6820   -3.8690   46.7780 O.2   431  LYS431     -0.2864
     13  CB       -48.7200   -2.5260   45.3420 C.3   431  LYS431      0.0298
     14  CG       -47.7320   -1.5030   44.7800 C.3   431  LYS431      0.0038
     15  CD       -47.8600   -0.1830   45.5300 C.3   431  LYS431      0.0206
     16  CE       -46.7840    0.8130   45.1370 C.3   431  LYS431      0.1093
     17  NZ       -46.8970    2.0530   45.9630 N.3   431  LYS431     -0.1314
     18  N        -41.3540    4.8450   52.4220 N.3   496  ASP496     -0.1225
     19  CA       -41.4490    5.8960   51.4280 C.3   496  ASP496      0.1805
     20  C        -42.8760    6.3720   51.2150 C.2   496  ASP496      0.2598
     21  O        -43.8000    5.5740   51.1790 O.2   496  ASP496     -0.2718
     22  CB       -40.8520    5.4220   50.0950 C.3   496  ASP496      0.1424
     23  CG       -40.7920    6.5390   49.0390 C.2   496  ASP496      0.3668
     24  OD1      -40.2250    7.6270   49.3270 O.co2 496  ASP496     -0.2456
     25  OD2      -41.3080    6.3300   47.9140 O.co2 496  ASP496     -0.2456
     26  N        -43.0630    7.6790   51.0920 N.am  497  GLY497     -0.1942
     27  CA       -44.3920    8.1830   50.8440 C.3   497  GLY497      0.2014
     28  C        -44.8290    7.6850   49.4790 C.2   497  GLY497      0.2640
     29  O        -43.9970    7.4420   48.5990 O.2   497  GLY497     -0.2714
     30  N        -46.1340    7.5060   49.3090 N.am  498  SER498     -0.1935
     31  CA       -46.6760    7.0430   48.0410 C.3   498  SER498      0.2055
     32  C        -47.1680    8.2550   47.2690 C.2   498  SER498      0.2643
     33  O        -48.2340    8.7970   47.5630 O.2   498  SER498     -0.2714
     34  CB       -47.8270    6.0570   48.2780 C.3   498  SER498      0.2130
     35  OG       -48.7880    6.5770   49.1820 O.3   498  SER498     -0.2179
     36  N        -46.3730    8.6840   46.2930 N.am  499  CYS499     -0.1967
     37  CA       -46.7080    9.8400   45.4730 C.3   499  CYS499      0.1712
     38  C        -46.8640   11.0860   46.3350 C.2   499  CYS499      0.2296
     39  O        -47.9210   11.7340   46.3250 O.2   499  CYS499     -0.2864
     40  CB       -48.0010    9.5860   44.7210 C.3   499  CYS499      0.0983
     41  SG       -48.3310   10.8620   43.5090 S.3   499  CYS499     -0.0798
     42  N        -53.0180    2.8280   45.1010 N.3   528  ASP528     -0.1239
     43  CA       -51.9070    3.1580   44.2290 C.3   528  ASP528      0.1674
     44  C        -52.4600    3.9780   43.0730 C.2   528  ASP528      0.2266
     45  O        -52.9890    3.4340   42.0990 O.2   528  ASP528     -0.2867
     46  CB       -51.2290    1.8940   43.6960 C.3   528  ASP528      0.1410
     47  CG       -50.0720    2.2090   42.7450 C.2   528  ASP528      0.3668
     48  OD1      -49.1000    2.8860   43.1740 O.co2 528  ASP528     -0.2456
     49  OD2      -50.1300    1.7870   41.5660 O.co2 528  ASP528     -0.2456
     50  N        -51.1980    5.3230   40.5960 N.3   530  TYR530     -0.1241
     51  CA       -50.7360    5.0170   39.2520 C.3   530  TYR530      0.1605
     52  C        -51.5030    3.8240   38.7170 C.2   530  TYR530      0.2264
     53  O        -51.8890    3.7890   37.5570 O.2   530  TYR530     -0.2867
     54  CB       -49.2280    4.7410   39.2470 C.3   530  TYR530      0.0534
     55  CG       -48.4360    5.8240   39.9410 C.ar  530  TYR530     -0.0201
     56  CD1      -48.7270    7.1670   39.7290 C.ar  530  TYR530     -0.0009
     57  CD2      -47.4320    5.5070   40.8540 C.ar  530  TYR530     -0.0009
     58  CE1      -48.0440    8.1690   40.4190 C.ar  530  TYR530      0.0417
     59  CE2      -46.7460    6.4960   41.5420 C.ar  530  TYR530      0.0417
     60  CZ       -47.0550    7.8240   41.3250 C.ar  530  TYR530      0.1957
     61  OH       -46.3810    8.8100   42.0180 O.3   530  TYR530     -0.2866
     62  N        -49.0980    0.1770   35.8490 N.3   572  ARG572     -0.1245
     63  CA       -48.8780    1.3920   36.6170 C.3   572  ARG572      0.1563
     64  C        -47.6350    2.1300   36.1500 C.2   572  ARG572      0.2260
     65  O        -47.5920    3.3520   36.1470 O.2   572  ARG572     -0.2867
     66  CB       -48.7560    1.0570   38.1040 C.3   572  ARG572      0.0307
     67  CG       -47.6820    0.0420   38.4380 C.3   572  ARG572      0.0489
     68  CD       -47.7580   -0.3500   39.9040 C.3   572  ARG572      0.2205
     69  NE       -47.6680    0.7990   40.8070 N.pl3 572  ARG572     -0.0865
     70  CZ       -46.5610    1.5090   41.0280 C.cat 572  ARG572      0.5346
     71  NH1      -45.4230    1.1970   40.4100 N.pl3 572  ARG572      0.1354
     72  NH2      -46.5950    2.5320   41.8710 N.pl3 572  ARG572      0.1354
     73  N        -47.0790    6.2170   35.5440 N.3   576  LYS576     -0.1245
     74  CA       -46.3760    6.8680   36.6470 C.3   576  LYS576      0.1561
     75  C        -46.0380    8.3480   36.4540 C.2   576  LYS576      0.2260
     76  O        -46.7470    9.2250   36.9550 O.2   576  LYS576     -0.2867
     77  CB       -45.1000    6.0860   36.9860 C.3   576  LYS576      0.0271
     78  CG       -44.3910    6.5390   38.2660 C.3   576  LYS576      0.0035
     79  CD       -43.5730    5.4020   38.8890 C.3   576  LYS576      0.0206
     80  CE       -42.9380    5.8270   40.2120 C.3   576  LYS576      0.1093
     81  NZ       -43.9560    6.2510   41.2250 N.3   576  LYS576     -0.1314
     82  N        -47.8550   11.6920   38.3210 N.3   580  MET580     -0.1245
     83  CA       -47.0610   12.4330   39.2790 C.3   580  MET580      0.1570
     84  C        -46.7760   13.8810   38.8810 C.2   580  MET580      0.2261
     85  O        -46.7700   14.7680   39.7360 O.2   580  MET580     -0.2867
     86  CB       -45.7480   11.6820   39.5160 C.3   580  MET580      0.0387
     87  CG       -44.5690   12.5690   39.9030 C.3   580  MET580      0.0595
     88  SD       -43.1690   11.5960   40.5060 S.3   580  MET580     -0.1393
     89  CE       -42.8410   10.4910   39.0740 C.3   580  MET580      0.0692
     90  N        -38.3190   11.8800   50.0890 N.3   757  ASP757     -0.1239
     91  CA       -39.6620   11.5280   50.4920 C.3   757  ASP757      0.1674
     92  C        -39.6230   10.1480   51.1090 C.2   757  ASP757      0.2266
     93  O        -40.6540    9.5540   51.4150 O.2   757  ASP757     -0.2867
     94  CB       -40.5890   11.5630   49.2820 C.3   757  ASP757      0.1410
     95  CG       -40.4830   10.3280   48.4500 C.2   757  ASP757      0.3668
     96  OD1      -39.3440    9.8590   48.2300 O.co2 757  ASP757     -0.2456
     97  OD2      -41.5390    9.8250   48.0140 O.co2 757  ASP757     -0.2456
@<TRIPOS>BOND
     1    73    74    1
     2    62    63    1
     3    65    64    2
     4    64    63    1
     5    75    74    1
     6    75    76    2
     7    63    66    1
     8    74    77    1
     9    77    78    1
    10    53    52    2
    11    66    67    1
    12    78    79    1
    13    82    83    1
    14    67    68    1
    15    52    51    1
    16    84    83    1
    17    84    85    2
    18    79    80    1
    19    89    88    1
    20    54    51    1
    21    54    55    1
    22    51    50    1
    23    83    86    1
    24    86    87    1
    25    56    55   ar
    26    56    58   ar
    27    87    88    1
    28    68    69    1
    29    55    57   ar
    30    80    81    1
    31    71    70    1
    32    58    60   ar
    33    69    70    2
    34    57    59   ar
    35    70    72    1
    36    60    59   ar
    37    60    61    1
    38    49    47   ar
    39    45    44    2
    40    47    48   ar
    41    47    46    1
    42    44    43    1
    43    41    40    1
    44    46    43    1
    45    43    42    1
    46    40    37    1
    47    14    13    1
    48    14    15    1
    49    16    15    1
    50    16    17    1
    51    13    10    1
    52    37    36    1
    53    37    38    1
    54     7     6   ar
    55    36    32   am
    56    39    38    2
    57     8     6   ar
    58     6     5    1
    59    12    11    2
    60    10     9    1
    61    10    11    1
    62     9     3   am
    63    32    33    2
    64    32    31    1
    65     1     2    1
    66    25    23   ar
    67    97    95   ar
    68    31    34    1
    69    31    30    1
    70     3     2    1
    71     3     4    2
    72     5     2    1
    73    96    95   ar
    74    34    35    1
    75    95    94    1
    76    29    28    2
    77    23    24   ar
    78    23    22    1
    79    94    91    1
    80    30    28   am
    81    28    27    1
    82    90    91    1
    83    22    19    1
    84    91    92    1
    85    27    26    1
    86    26    20   am
    87    92    93    2
    88    21    20    2
    89    20    19    1
    90    19    18    1
