@<TRIPOS>MOLECULE
tmp/1s7cA00.pdb
 89 82 0 0 0
SMALL
GASTEIGER

@<TRIPOS>ATOM
      1  N         59.4230   34.2380   67.7410 N.3   121  PRO121     -0.2116
      2  CA        60.0280   32.9150   67.8860 C.3   121  PRO121      0.1372
      3  C         58.9610   31.8760   68.2250 C.2   121  PRO121      0.2244
      4  O         58.0880   32.1180   69.0610 O.2   121  PRO121     -0.2868
      5  CB        61.0370   33.1230   69.0120 C.3   121  PRO121      0.0268
      6  CG        60.3760   34.1690   69.8540 C.3   121  PRO121      0.0207
      7  CD        59.8490   35.1390   68.8250 C.3   121  PRO121      0.0892
      8  N         63.3130   36.1980   66.4940 N.3   148  SER148     -0.1202
      9  CA        62.9920   37.5070   67.1500 C.3   148  SER148      0.2020
     10  C         63.8990   38.6260   66.6020 C.2   148  SER148      0.2619
     11  O         64.8850   38.3630   65.9050 O.2   148  SER148     -0.2717
     12  CB        63.1640   37.4110   68.6720 C.3   148  SER148      0.2103
     13  OG        64.5150   37.1800   69.0320 O.3   148  SER148     -0.2182
     14  N         63.5550   39.8730   66.9260 N.am  149  CYS149     -0.1955
     15  CA        64.3270   41.0370   66.4820 C.3   149  CYS149      0.1843
     16  C         65.7710   40.9760   66.9770 C.2   149  CYS149      0.2626
     17  O         66.7050   41.2380   66.2210 O.2   149  CYS149     -0.2714
     18  CB        63.7050   42.3370   67.0020 C.3   149  CYS149      0.0997
     19  SG        61.9230   42.4560   66.8530 S.3   149  CYS149     -0.0797
     20  N         65.9480   40.6410   68.2500 N.am  150  THR150     -0.1950
     21  CA        67.2810   40.5810   68.8290 C.3   150  THR150      0.1897
     22  C         68.1230   39.4850   68.1860 C.2   150  THR150      0.2313
     23  O         69.3110   39.6840   67.9250 O.2   150  THR150     -0.2863
     24  CB        67.2130   40.3760   70.3540 C.3   150  THR150      0.1794
     25  OG1       66.5180   41.4830   70.9420 O.3   150  THR150     -0.2208
     26  CG2       68.6060   40.3100   70.9520 C.3   150  THR150      0.0378
     27  N         67.3080   47.6480   75.1230 N.3   176  HIS176     -0.1241
     28  CA        66.1200   47.6100   74.2900 C.3   176  HIS176      0.1621
     29  C         65.0770   48.7030   74.5120 C.2   176  HIS176      0.2264
     30  O         64.7770   49.0830   75.6470 O.2   176  HIS176     -0.2867
     31  CB        65.5050   46.2240   74.4980 C.3   176  HIS176      0.0745
     32  CG        64.5960   45.7760   73.4020 C.ar  176  HIS176      0.0817
     33  ND1       63.3960   46.3910   73.1250 N.ar  176  HIS176     -0.2268
     34  CD2       64.6930   44.7320   72.5420 C.ar  176  HIS176      0.1154
     35  CE1       62.7870   45.7440   72.1450 C.ar  176  HIS176      0.1986
     36  NE2       63.5550   44.7340   71.7760 N.ar  176  HIS176     -0.2212
     37  N         58.3760   48.5900   74.5690 N.3   179  THR179     -0.1218
     38  CA        57.4490   47.9780   73.6090 C.3   179  THR179      0.1862
     39  C         56.0240   47.9480   74.1630 C.2   179  THR179      0.2287
     40  O         55.7950   48.2770   75.3330 O.2   179  THR179     -0.2866
     41  CB        57.8330   46.5260   73.2390 C.3   179  THR179      0.1770
     42  OG1       57.7010   45.6810   74.3880 O.3   179  THR179     -0.2211
     43  CG2       59.2580   46.4710   72.7090 C.3   179  THR179      0.0375
     44  N         64.4520   39.3230   80.8320 N.3   207  SER207     -0.1202
     45  CA        65.0130   38.0810   80.3010 C.3   207  SER207      0.2020
     46  C         64.8440   37.9720   78.7920 C.2   207  SER207      0.2619
     47  O         63.9230   38.5460   78.2190 O.2   207  SER207     -0.2717
     48  CB        64.3480   36.8720   80.9620 C.3   207  SER207      0.2103
     49  OG        64.6070   36.8490   82.3520 O.3   207  SER207     -0.2182
     50  N         65.7440   37.2260   78.1610 N.am  208  THR208     -0.1952
     51  CA        65.7080   37.0150   76.7180 C.3   208  THR208      0.1897
     52  C         66.6860   35.9310   76.3060 C.2   208  THR208      0.2313
     53  O         67.2000   35.1950   77.1390 O.2   208  THR208     -0.2863
     54  CB        66.0860   38.2770   75.9370 C.3   208  THR208      0.1794
     55  OG1       66.1640   37.9580   74.5420 O.3   208  THR208     -0.2208
     56  CG2       67.4390   38.7970   76.3910 C.3   208  THR208      0.0378
     57  N         65.2520   34.2190   75.0900 N.3   209  GLY209     -0.1210
     58  CA        66.4570   33.4570   74.8250 C.3   209  GLY209      0.1956
     59  C         67.0320   33.7800   73.4630 C.2   209  GLY209      0.2611
     60  O         67.5060   32.8870   72.7640 O.2   209  GLY209     -0.2717
     61  N         66.9930   35.0550   73.0860 N.am  210  ALA210     -0.1979
     62  CA        67.5110   35.4730   71.7870 C.3   210  ALA210      0.1597
     63  C         68.9580   35.0370   71.5850 C.2   210  ALA210      0.2287
     64  O         69.3320   34.5830   70.5060 O.2   210  ALA210     -0.2864
     65  CB        67.3910   36.9810   71.6350 C.3   210  ALA210      0.0319
     66  N         68.8690   31.3570   71.2920 N.3   213  ALA213     -0.1245
     67  CA        68.2240   31.0320   70.0200 C.3   213  ALA213      0.1562
     68  C         69.1480   31.1190   68.8110 C.2   213  ALA213      0.2260
     69  O         68.8330   30.5810   67.7480 O.2   213  ALA213     -0.2867
     70  CB        67.0120   31.9320   69.8070 C.3   213  ALA213      0.0290
     71  N         65.2590   47.1500   79.3480 N.3   231  ARG231     -0.1245
     72  CA        64.2990   47.9660   78.6060 C.3   231  ARG231      0.1563
     73  C         64.4970   49.4070   79.0920 C.2   231  ARG231      0.2260
     74  O         64.5640   49.6490   80.2980 O.2   231  ARG231     -0.2867
     75  CB        62.8600   47.5190   78.8980 C.3   231  ARG231      0.0307
     76  CG        62.4620   46.1780   78.2770 C.3   231  ARG231      0.0489
     77  CD        62.5960   46.2340   76.7610 C.3   231  ARG231      0.2205
     78  NE        62.2070   44.9870   76.1020 N.pl3 231  ARG231     -0.0865
     79  CZ        60.9660   44.6730   75.7450 C.cat 231  ARG231      0.5346
     80  NH1       59.9650   45.5100   75.9790 N.pl3 231  ARG231      0.1354
     81  NH2       60.7280   43.5220   75.1300 N.pl3 231  ARG231      0.1354
     82  N         64.1730   47.6470   66.0940 N.3   313  ASN313     -0.1240
     83  CA        63.3660   46.4700   66.4130 C.3   313  ASN313      0.1653
     84  C         62.0350   46.3550   65.6770 C.2   313  ASN313      0.2266
     85  O         61.4370   45.2830   65.6510 O.2   313  ASN313     -0.2867
     86  CB        63.1360   46.3600   67.9230 C.3   313  ASN313      0.1155
     87  CG        62.8500   47.6910   68.5700 C.2   313  ASN313      0.2627
     88  OD1       63.7230   48.5580   68.6350 O.2   313  ASN313     -0.2716
     89  ND2       61.6240   47.8660   69.0530 N.am  313  ASN313     -0.0877
@<TRIPOS>BOND
     1    85    84    2
     2    84    83    1
     3    11    10    2
     4    82    83    1
     5    17    16    2
     6    83    86    1
     7    15    14    1
     8    15    16    1
     9    15    18    1
    10     8     9    1
    11    10    14   am
    12    10     9    1
    13    19    18    1
    14    16    20   am
    15     9    12    1
    16     1     2    1
    17     1     7    1
    18    69    68    2
    19     2     3    1
    20     2     5    1
    21    86    87    1
    22    23    22    2
    23    22    21    1
    24     3     4    2
    25    20    21    1
    26    87    88    2
    27    87    89   am
    28    12    13    1
    29    68    67    1
    30     7     6    1
    31    21    24    1
    32     5     6    1
    33    70    67    1
    34    67    66    1
    35    24    25    1
    36    24    26    1
    37    64    63    2
    38    63    62    1
    39    65    62    1
    40    36    35   ar
    41    36    34   ar
    42    62    61    1
    43    35    33   ar
    44    34    32   ar
    45    43    41    1
    46    60    59    2
    47    61    59   am
    48    33    32   ar
    49    41    38    1
    50    41    42    1
    51    32    31    1
    52    59    58    1
    53    38    39    1
    54    38    37    1
    55    39    40    2
    56    28    31    1
    57    28    29    1
    58    28    27    1
    59    29    30    2
    60    55    54    1
    61    58    57    1
    62    81    79    1
    63    79    80    1
    64    79    78    2
    65    54    56    1
    66    54    51    1
    67    78    77    1
    68    52    51    1
    69    52    53    2
    70    51    50    1
    71    77    76    1
    72    50    46   am
    73    47    46    2
    74    76    75    1
    75    72    75    1
    76    72    73    1
    77    72    71    1
    78    46    45    1
    79    73    74    2
    80    45    44    1
    81    45    48    1
    82    48    49    1
