@<TRIPOS>MOLECULE
tmp/1s7fA00.pdb
 74 70 0 0 0
SMALL
GASTEIGER

@<TRIPOS>ATOM
      1  N         46.6260   11.0200   18.8760 N.3   105  LEU105     -0.1245
      2  CA        46.9590   11.2110   20.2810 C.3   105  LEU105      0.1561
      3  C         48.4750   11.2480   20.5520 C.2   105  LEU105      0.2260
      4  O         49.2130   10.3630   20.1380 O.2   105  LEU105     -0.2867
      5  CB        46.3550   10.0540   21.1160 C.3   105  LEU105      0.0270
      6  CG        46.2830   10.2610   22.6470 C.3   105  LEU105      0.0019
      7  CD1       45.2590   11.3840   22.9170 C.3   105  LEU105      0.0001
      8  CD2       45.8290    8.9540   23.3530 C.3   105  LEU105      0.0001
      9  N         49.2450    7.5550   24.9060 N.3   110  GLN110     -0.1231
     10  CA        48.7630    6.3410   24.3030 C.3   110  GLN110      0.1698
     11  C         48.6460    5.0850   25.2290 C.2   110  GLN110      0.2593
     12  O         49.2700    4.9710   26.2670 O.2   110  GLN110     -0.2718
     13  CB        49.5840    6.0440   23.0810 C.3   110  GLN110      0.0381
     14  CG        49.2180    7.0700   21.9710 C.3   110  GLN110      0.0905
     15  CD        50.0840    6.9500   20.7240 C.2   110  GLN110      0.2608
     16  OE1       50.8670    5.9870   20.5880 O.2   110  GLN110     -0.2717
     17  NE2       49.9480    7.9280   19.7890 N.am  110  GLN110     -0.0878
     18  N         47.7710    4.1770   24.8500 N.am  111  GLY111     -0.1942
     19  CA        47.5970    2.9780   25.6290 C.3   111  GLY111      0.2014
     20  C         46.7830    3.1060   26.8900 C.2   111  GLY111      0.2639
     21  O         46.8510    2.2160   27.7130 O.2   111  GLY111     -0.2714
     22  N         46.0450    4.1990   27.0730 N.am  112  GLN112     -0.1963
     23  CA        45.2030    4.3270   28.2650 C.3   112  GLN112      0.1733
     24  C         43.6890    4.2310   27.9140 C.2   112  GLN112      0.2617
     25  O         42.8000    4.3450   28.7960 O.2   112  GLN112     -0.2715
     26  CB        45.4890    5.6520   28.9680 C.3   112  GLN112      0.0408
     27  CG        46.9540    5.8100   29.3590 C.3   112  GLN112      0.0908
     28  CD        47.1780    7.1140   30.0960 C.2   112  GLN112      0.2608
     29  OE1       46.2990    7.5750   30.8500 O.2   112  GLN112     -0.2717
     30  NE2       48.3530    7.7160   29.9040 N.am  112  GLN112     -0.0878
     31  N         43.3910    4.0080   26.6350 N.am  113  GLY113     -0.1940
     32  CA        42.0060    3.9480   26.2360 C.3   113  GLY113      0.2014
     33  C         41.4250    5.3450   26.0410 C.2   113  GLY113      0.2639
     34  O         40.2010    5.5120   25.8920 O.2   113  GLY113     -0.2714
     35  N         42.2840    6.3590   26.0450 N.am  114  ILE114     -0.1963
     36  CA        41.8000    7.7570   25.8830 C.3   114  ILE114      0.1727
     37  C         41.0810    8.0940   24.5340 C.2   114  ILE114      0.2616
     38  O         40.0080    8.7700   24.4730 O.2   114  ILE114     -0.2715
     39  CB        42.9970    8.7910   26.0960 C.3   114  ILE114      0.0290
     40  CG1       43.3770    8.8470   27.5970 C.3   114  ILE114      0.0022
     41  CG2       42.5890   10.1920   25.5500 C.3   114  ILE114      0.0023
     42  CD1       44.8150    9.4940   27.8650 C.3   114  ILE114      0.0001
     43  N         41.6110    7.5440   23.4560 N.am  115  MET115     -0.1963
     44  CA        41.0580    7.8240   22.1440 C.3   115  MET115      0.1736
     45  C         39.6600    7.1720   21.9920 C.2   115  MET115      0.2617
     46  O         38.6970    7.8350   21.5110 O.2   115  MET115     -0.2715
     47  CB        42.0730    7.3880   21.0700 C.3   115  MET115      0.0427
     48  CG        41.6810    7.8750   19.5690 C.3   115  MET115      0.0599
     49  SD        41.0790    9.6230   19.5220 S.3   115  MET115     -0.1393
     50  CE        42.6310   10.3890   19.4840 C.3   115  MET115      0.0692
     51  N         39.5390    5.8980   22.4110 N.am  116  SER116     -0.1950
     52  CA        38.2410    5.2600   22.3060 C.3   116  SER116      0.1924
     53  C         37.2200    5.9890   23.1550 C.2   116  SER116      0.2314
     54  O         36.1150    6.2230   22.6880 O.2   116  SER116     -0.2863
     55  CB        38.2760    3.7830   22.7490 C.3   116  SER116      0.2116
     56  OG        38.9430    2.9420   21.8610 O.3   116  SER116     -0.2180
     57  N         41.7450    1.6130   16.3710 N.3   149  VAL149     -0.1245
     58  CA        40.6910    2.4540   16.9700 C.3   149  VAL149      0.1561
     59  C         39.3330    2.1860   16.3160 C.2   149  VAL149      0.2260
     60  O         38.2920    2.0410   17.0010 O.2   149  VAL149     -0.2867
     61  CB        41.0610    3.9480   16.8750 C.3   149  VAL149      0.0252
     62  CG1       39.9130    4.8480   17.2350 C.3   149  VAL149      0.0019
     63  CG2       42.1730    4.1890   17.8140 C.3   149  VAL149      0.0019
     64  N         38.0020   -1.3450   17.4460 N.3   152  ARG152     -0.1245
     65  CA        37.6310   -1.3140   18.8540 C.3   152  ARG152      0.1563
     66  C         36.2610   -0.6520   18.9980 C.2   152  ARG152      0.2260
     67  O         35.6030   -0.8880   20.0010 O.2   152  ARG152     -0.2867
     68  CB        38.6310   -0.4240   19.5880 C.3   152  ARG152      0.0307
     69  CG        39.5780   -1.1040   20.5330 C.3   152  ARG152      0.0489
     70  CD        41.0400   -1.2270   20.1760 C.3   152  ARG152      0.2205
     71  NE        41.7930    0.0080   20.3020 N.pl3 152  ARG152     -0.0865
     72  CZ        43.1290    0.1010   20.4070 C.cat 152  ARG152      0.5346
     73  NH1       43.9340   -0.9470   20.4590 N.pl3 152  ARG152      0.1354
     74  NH2       43.6870    1.2900   20.3010 N.pl3 152  ARG152      0.1354
@<TRIPOS>BOND
     1    59    58    1
     2    59    60    2
     3    57    58    1
     4    61    58    1
     5    61    62    1
     6    61    63    1
     7    64    65    1
     8    65    66    1
     9    65    68    1
    10     1     2    1
    11    66    67    2
    12    50    49    1
    13    49    48    1
    14    48    47    1
    15    68    69    1
    16    17    15   am
    17     4     3    2
    18    70    71    1
    19    70    69    1
    20     2     3    1
    21     2     5    1
    22    74    72    1
    23    71    72    2
    24    72    73    1
    25    16    15    2
    26    15    14    1
    27    47    44    1
    28     5     6    1
    29    46    45    2
    30    56    55    1
    31    14    13    1
    32    45    44    1
    33    45    51   am
    34    44    43    1
    35    52    51    1
    36    52    55    1
    37    52    53    1
    38     6     7    1
    39     6     8    1
    40    54    53    2
    41    13    10    1
    42    43    37   am
    43    10     9    1
    44    10    11    1
    45    38    37    2
    46    37    36    1
    47    18    11   am
    48    18    19    1
    49    11    12    2
    50    41    39    1
    51    19    20    1
    52    36    35    1
    53    36    39    1
    54    34    33    2
    55    33    35   am
    56    33    32    1
    57    39    40    1
    58    32    31    1
    59    31    24   am
    60    20    22   am
    61    20    21    2
    62    22    23    1
    63    40    42    1
    64    24    23    1
    65    24    25    2
    66    23    26    1
    67    26    27    1
    68    27    28    1
    69    30    28   am
    70    28    29    2
