@<TRIPOS>MOLECULE
tmp/1s7gA01.pdb
 166 165 0 0 0
SMALL
GASTEIGER

@<TRIPOS>ATOM
      1  N         19.0900   44.8620   12.0970 N.3    32  ILE32      -0.1231
      2  CA        19.5100   45.0930   10.7200 C.3    32  ILE32       0.1678
      3  C         18.6480   46.1980   10.1110 C.2    32  ILE32       0.2434
      4  O         17.5170   45.9550    9.6920 O.2    32  ILE32      -0.2733
      5  CB        19.3710   43.8110    9.8640 C.3    32  ILE32       0.0265
      6  CG1       20.0910   42.6460   10.5480 C.3    32  ILE32       0.0019
      7  CG2       19.9690   44.0390    8.4820 C.3    32  ILE32       0.0020
      8  CD1       19.9370   41.3160    9.8340 C.3    32  ILE32       0.0001
      9  N         19.1750   47.4320   10.0570 N.am   33  PRO33      -0.2729
     10  CA        18.4160   48.5500    9.4920 C.3    33  PRO33       0.1401
     11  C         18.0660   48.3540    8.0190 C.2    33  PRO33       0.2269
     12  O         18.8140   47.7290    7.2610 O.2    33  PRO33      -0.2865
     13  CB        19.3400   49.7430    9.7240 C.3    33  PRO33       0.0296
     14  CG        20.6970   49.1310    9.5950 C.3    33  PRO33       0.0237
     15  CD        20.5450   47.8560   10.4000 C.3    33  PRO33       0.0939
     16  N         16.8290   49.8480    4.1020 N.3    35  PHE35      -0.1241
     17  CA        17.4920   50.7260    3.1380 C.3    35  PHE35       0.1605
     18  C         17.6240   52.1700    3.6220 C.2    35  PHE35       0.2264
     19  O         18.7370   52.6890    3.7560 O.2    35  PHE35      -0.2867
     20  CB        16.7410   50.6940    1.8040 C.3    35  PHE35       0.0534
     21  CG        16.7690   49.3520    1.0520 C.ar   35  PHE35      -0.0203
     22  CD1       17.7800   48.4460    1.2980 C.ar   35  PHE35      -0.0042
     23  CD2       15.7900   49.1080    0.0920 C.ar   35  PHE35      -0.0042
     24  CE1       17.7880   47.2810    0.5600 C.ar   35  PHE35      -0.0003
     25  CE2       15.8130   47.9430   -0.6370 C.ar   35  PHE35      -0.0003
     26  CZ        16.8280   47.0350   -0.3890 C.ar   35  PHE35      -0.0000
     27  N         33.7490   45.6050   -3.6070 N.3    63  PHE63      -0.1227
     28  CA        32.5270   45.0350   -3.0490 C.3    63  PHE63       0.1736
     29  C         32.6600   44.7730   -1.5520 C.2    63  PHE63       0.2595
     30  O         31.7810   45.1400   -0.7670 O.2    63  PHE63      -0.2718
     31  CB        32.1700   43.7290   -3.7680 C.3    63  PHE63       0.0547
     32  CG        31.1470   42.8990   -3.0450 C.ar   63  PHE63      -0.0202
     33  CD1       31.5430   41.8710   -2.1950 C.ar   63  PHE63      -0.0042
     34  CD2       29.7870   43.1580   -3.1940 C.ar   63  PHE63      -0.0042
     35  CE1       30.6010   41.1100   -1.5040 C.ar   63  PHE63      -0.0003
     36  CE2       28.8360   42.4050   -2.5080 C.ar   63  PHE63      -0.0003
     37  CZ        29.2480   41.3750   -1.6590 C.ar   63  PHE63      -0.0000
     38  N         33.7560   44.1320   -1.1550 N.am   64  TRP64      -0.1976
     39  CA        33.9700   43.8230    0.2510 C.3    64  TRP64       0.1640
     40  C         34.1570   45.0450    1.1480 C.2    64  TRP64       0.2290
     41  O         33.6430   45.0690    2.2600 O.2    64  TRP64      -0.2864
     42  CB        35.1450   42.8630    0.4070 C.3    64  TRP64       0.0576
     43  CG        34.7920   41.4600    0.0050 C.ar   64  TRP64       0.0006
     44  CD1       35.2810   40.7630   -1.0590 C.ar   64  TRP64       0.0946
     45  CD2       33.8590   40.5900    0.6610 C.ar   64  TRP64       0.0152
     46  NE1       34.7130   39.5080   -1.1090 N.ar   64  TRP64      -0.2442
     47  CE2       33.8380   39.3750   -0.0630 C.ar   64  TRP64       0.0810
     48  CE3       33.0390   40.7190    1.7890 C.ar   64  TRP64       0.0012
     49  CZ2       33.0280   38.2900    0.3060 C.ar   64  TRP64       0.0191
     50  CZ3       32.2300   39.6380    2.1570 C.ar   64  TRP64       0.0001
     51  CH2       32.2360   38.4380    1.4120 C.ar   64  TRP64       0.0015
     52  N         32.9730   47.9520    0.4930 N.3    66  PHE66      -0.1227
     53  CA        31.6680   48.5950    0.4550 C.3    66  PHE66       0.1736
     54  C         30.8160   47.9120    1.5230 C.2    66  PHE66       0.2596
     55  O         30.1180   48.5720    2.2900 O.2    66  PHE66      -0.2718
     56  CB        31.0400   48.4100   -0.9350 C.3    66  PHE66       0.0547
     57  CG        29.5670   48.7340   -1.0000 C.ar   66  PHE66      -0.0202
     58  CD1       28.6380   47.7370   -1.2890 C.ar   66  PHE66      -0.0042
     59  CD2       29.1100   50.0350   -0.7980 C.ar   66  PHE66      -0.0042
     60  CE1       27.2760   48.0320   -1.3800 C.ar   66  PHE66      -0.0003
     61  CE2       27.7510   50.3380   -0.8860 C.ar   66  PHE66      -0.0003
     62  CZ        26.8320   49.3350   -1.1780 C.ar   66  PHE66      -0.0000
     63  N         30.9010   46.5860    1.5850 N.am   67  SER67      -0.1952
     64  CA        30.1300   45.8180    2.5600 C.3    67  SER67       0.1924
     65  C         30.5570   46.0610    4.0050 C.2    67  SER67       0.2314
     66  O         29.7230   46.0720    4.9090 O.2    67  SER67      -0.2863
     67  CB        30.2170   44.3210    2.2490 C.3    67  SER67       0.2116
     68  OG        29.7040   44.0460    0.9590 O.3    67  SER67      -0.2180
     69  N         29.0930   49.5200    5.2730 N.3    70  MET70      -0.1230
     70  CA        27.6560   49.5190    5.5210 C.3    70  MET70       0.1702
     71  C         27.3020   48.2170    6.2410 C.2    70  MET70       0.2592
     72  O         26.1520   47.7860    6.2420 O.2    70  MET70      -0.2718
     73  CB        26.8890   49.5960    4.1960 C.3    70  MET70       0.0401
     74  CG        27.3820   50.6640    3.2180 C.3    70  MET70       0.0596
     75  SD        27.3670   52.3630    3.8630 S.3    70  MET70      -0.1393
     76  CE        25.6560   52.8500    3.5750 C.3    70  MET70       0.0692
     77  N         28.3120   47.6050    6.8540 N.am   71  LYS71      -0.1966
     78  CA        28.1830   46.3350    7.5740 C.3    71  LYS71       0.1728
     79  C         26.9210   46.1320    8.4090 C.2    71  LYS71       0.2616
     80  O         26.0470   45.3410    8.0390 O.2    71  LYS71      -0.2715
     81  CB        29.4170   46.1180    8.4610 C.3    71  LYS71       0.0311
     82  CG        29.4490   44.9210    9.3820 C.3    71  LYS71       0.0038
     83  CD        30.8780   44.4610    9.6500 C.3    71  LYS71       0.0206
     84  CE        31.8000   45.6200   10.0330 C.3    71  LYS71       0.1093
     85  NZ        33.2170   45.3270    9.6520 N.3    71  LYS71      -0.1314
     86  N         26.8480   46.8300    9.5410 N.am   72  ASP72      -0.1957
     87  CA        25.7170   46.7250   10.4690 C.3    72  ASP72       0.1840
     88  C         25.8600   45.4730   11.3440 C.2    72  ASP72       0.2622
     89  O         26.9680   45.1120   11.7490 O.2    72  ASP72      -0.2715
     90  CB        24.3850   46.6880    9.7020 C.3    72  ASP72       0.1450
     91  CG        24.0020   47.9010    8.9090 C.2    72  ASP72       0.3671
     92  OD1       24.0980   49.0250    9.4440 O.co2  72  ASP72      -0.2456
     93  OD2       23.5750   47.7480    7.7360 O.co2  72  ASP72      -0.2456
     94  N         24.7410   44.8120   11.6280 N.am   73  LYS73      -0.1963
     95  CA        24.7530   43.6120   12.4600 C.3    73  LYS73       0.1728
     96  C         25.1570   42.3600   11.6820 C.2    73  LYS73       0.2616
     97  O         24.5450   42.0160   10.6710 O.2    73  LYS73      -0.2715
     98  CB        23.3830   43.4100   13.0980 C.3    73  LYS73       0.0311
     99  CG        23.4190   42.5690   14.3570 C.3    73  LYS73       0.0038
    100  CD        24.3500   43.1200   15.4580 C.3    73  LYS73       0.0206
    101  CE        23.6020   44.0160   16.4730 C.3    73  LYS73       0.1093
    102  NZ        23.8960   43.9040   17.9510 N.3    73  LYS73      -0.1314
    103  N         26.1970   41.6880   12.1640 N.am   74  LEU74      -0.1977
    104  CA        26.6930   40.4660   11.5380 C.3    74  LEU74       0.1596
    105  C         26.2670   39.2460   12.3480 C.2    74  LEU74       0.2287
    106  O         26.1790   38.1360   11.8170 O.2    74  LEU74      -0.2864
    107  CB        28.2200   40.4980   11.4320 C.3    74  LEU74       0.0297
    108  CG        28.8050   41.5470   10.4820 C.3    74  LEU74       0.0022
    109  CD1       30.3200   41.6290   10.6550 C.3    74  LEU74       0.0001
    110  CD2       28.4370   41.1890    9.0480 C.3    74  LEU74       0.0001
    111  N         18.7280   38.2660    3.0020 N.3   102  ILE102     -0.1231
    112  CA        19.8600   37.3620    2.8420 C.3   102  ILE102      0.1692
    113  C         20.4770   36.9770    4.1960 C.2   102  ILE102      0.2592
    114  O         21.5390   36.3610    4.2440 O.2   102  ILE102     -0.2718
    115  CB        20.9530   38.0370    1.9970 C.3   102  ILE102      0.0266
    116  CG1       21.4870   39.2620    2.7460 C.3   102  ILE102      0.0019
    117  CG2       20.3860   38.4470    0.6370 C.3   102  ILE102      0.0020
    118  CD1       22.5060   40.0840    1.9710 C.3   102  ILE102      0.0001
    119  N         19.8050   37.3290    5.2890 N.am  103  ASP103     -0.1974
    120  CA        20.3110   37.0540    6.6320 C.3   103  ASP103      0.1709
    121  C         20.0480   35.6420    7.1800 C.2   103  ASP103      0.2293
    122  O         20.5830   35.2740    8.2240 O.2   103  ASP103     -0.2864
    123  CB        19.7490   38.0990    7.6030 C.3   103  ASP103      0.1436
    124  CG        18.2290   38.0750    7.6760 C.2   103  ASP103      0.3671
    125  OD1       17.6440   39.0820    8.1300 O.co2 103  ASP103     -0.2456
    126  OD2       17.6150   37.0500    7.2900 O.co2 103  ASP103     -0.2456
    127  N         23.7630   34.8700    2.6230 N.3   121  MET121     -0.1245
    128  CA        25.1420   34.8410    3.0940 C.3   121  MET121      0.1570
    129  C         25.4510   33.4930    3.7480 C.2   121  MET121      0.2261
    130  O         26.0510   33.4360    4.8170 O.2   121  MET121     -0.2867
    131  CB        25.3700   35.9660    4.1070 C.3   121  MET121      0.0387
    132  CG        25.3880   37.3620    3.5040 C.3   121  MET121      0.0595
    133  SD        26.6850   37.5300    2.2640 S.3   121  MET121     -0.1393
    134  CE        28.1470   37.6110    3.3050 C.3   121  MET121      0.0692
    135  N         30.1000   31.1890    5.3750 N.3   135  TRP135     -0.1241
    136  CA        30.3400   32.5620    5.8020 C.3   135  TRP135      0.1605
    137  C         30.9330   32.5960    7.2140 C.2   135  TRP135      0.2264
    138  O         31.6400   33.5340    7.5800 O.2   135  TRP135     -0.2867
    139  CB        29.0280   33.3350    5.7720 C.3   135  TRP135      0.0550
    140  CG        29.1090   34.7200    6.3090 C.ar  135  TRP135      0.0003
    141  CD1       28.3170   35.2610    7.2780 C.ar  135  TRP135      0.0946
    142  CD2       29.9710   35.7720    5.8600 C.ar  135  TRP135      0.0152
    143  NE1       28.6270   36.5860    7.4580 N.ar  135  TRP135     -0.2442
    144  CE2       29.6380   36.9280    6.6010 C.ar  135  TRP135      0.0810
    145  CE3       30.9870   35.8530    4.9060 C.ar  135  TRP135      0.0012
    146  CZ2       30.2840   38.1510    6.4160 C.ar  135  TRP135      0.0191
    147  CZ3       31.6360   37.0760    4.7210 C.ar  135  TRP135      0.0001
    148  CH2       31.2800   38.2050    5.4750 C.ar  135  TRP135      0.0015
    149  N         36.4120   39.4250    8.6670 N.3   142  PHE142     -0.1241
    150  CA        35.7350   40.5040    7.9610 C.3   142  PHE142      0.1605
    151  C         35.3630   41.6260    8.9250 C.2   142  PHE142      0.2264
    152  O         35.4750   42.8040    8.5860 O.2   142  PHE142     -0.2867
    153  CB        34.4930   39.9360    7.2620 C.3   142  PHE142      0.0534
    154  CG        33.5620   40.9750    6.7050 C.ar  142  PHE142     -0.0203
    155  CD1       32.4400   41.3750    7.4220 C.ar  142  PHE142     -0.0042
    156  CD2       33.7770   41.5190    5.4470 C.ar  142  PHE142     -0.0042
    157  CE1       31.5450   42.2970    6.8910 C.ar  142  PHE142     -0.0003
    158  CE2       32.8850   42.4430    4.9090 C.ar  142  PHE142     -0.0003
    159  CZ        31.7690   42.8310    5.6310 C.ar  142  PHE142     -0.0000
    160  N         24.9600   35.7260   -3.2250 N.3   162  VAL162     -0.1245
    161  CA        23.8490   36.6680   -3.1760 C.3   162  VAL162      0.1561
    162  C         23.7260   37.2540   -4.5680 C.2   162  VAL162      0.2260
    163  O         24.6880   37.2550   -5.3300 O.2   162  VAL162     -0.2867
    164  CB        24.0840   37.8210   -2.1530 C.3   162  VAL162      0.0252
    165  CG1       24.2890   37.2470   -0.7540 C.3   162  VAL162      0.0019
    166  CG2       25.2770   38.6560   -2.5690 C.3   162  VAL162      0.0019
@<TRIPOS>BOND
     1   163   162    2
     2   162   161    1
     3    31    28    1
     4    31    32    1
     5    27    28    1
     6   160   161    1
     7    34    32   ar
     8    34    36   ar
     9   161   164    1
    10    28    29    1
    11    32    33   ar
    12   166   164    1
    13    36    37   ar
    14    33    35   ar
    15   164   165    1
    16    37    35   ar
    17    29    38   am
    18    29    30    2
    19    60    58   ar
    20    60    62   ar
    21    58    57   ar
    22    62    61   ar
    23    38    39    1
    24    46    44   ar
    25    46    47   ar
    26    44    43   ar
    27    57    56    1
    28    57    59   ar
    29    56    53    1
    30    61    59   ar
    31    25    26   ar
    32    25    23   ar
    33    26    24   ar
    34    47    49   ar
    35    47    45   ar
    36    43    42    1
    37    43    45   ar
    38    23    21   ar
    39    39    42    1
    40    39    40    1
    41    49    51   ar
    42    53    52    1
    43    53    54    1
    44    24    22   ar
    45   117   115    1
    46    45    48   ar
    47    68    67    1
    48    21    22   ar
    49    21    20    1
    50    40    41    2
    51    51    50   ar
    52    54    63   am
    53    54    55    2
    54    63    64    1
    55    48    50   ar
    56    20    17    1
    57   118   116    1
    58   115   116    1
    59   115   112    1
    60    67    64    1
    61   133   134    1
    62   133   132    1
    63    64    65    1
    64   127   128    1
    65   112   111    1
    66   112   113    1
    67   128   129    1
    68   128   131    1
    69    17    18    1
    70    17    16    1
    71    74    75    1
    72    74    73    1
    73   132   131    1
    74    76    75    1
    75    18    19    2
    76   129   130    2
    77    65    66    2
    78    73    70    1
    79   113   114    2
    80   113   119   am
    81   147   145   ar
    82   147   148   ar
    83   145   142   ar
    84   158   156   ar
    85   158   159   ar
    86    69    70    1
    87   119   120    1
    88   135   136    1
    89   156   154   ar
    90   148   146   ar
    91    70    71    1
    92   159   157   ar
    93   139   136    1
    94   139   140    1
    95   136   137    1
    96   142   140   ar
    97   142   144   ar
    98    71    72    2
    99    71    77   am
   100   140   141   ar
   101   146   144   ar
   102   144   143   ar
   103   120   121    1
   104   120   123    1
   105   154   153    1
   106   154   155   ar
   107    77    78    1
   108   157   155   ar
   109   121   122    2
   110   137   138    2
   111    12    11    2
   112   153   150    1
   113   141   143   ar
   114   126   124   ar
   115    78    79    1
   116    78    81    1
   117   123   124    1
   118   124   125   ar
   119    93    91   ar
   120   150   149    1
   121   150   151    1
   122    11    10    1
   123    80    79    2
   124    79    86   am
   125    81    82    1
   126     7     5    1
   127   152   151    2
   128    91    92   ar
   129    91    90    1
   130   110   108    1
   131    82    83    1
   132    10    13    1
   133    10     9    1
   134    86    87    1
   135    14    13    1
   136    14    15    1
   137    83    84    1
   138    85    84    1
   139     4     3    2
   140    90    87    1
   141     8     6    1
   142     5     6    1
   143     5     2    1
   144     9     3   am
   145     9    15    1
   146     3     2    1
   147    87    88    1
   148   108   109    1
   149   108   107    1
   150    97    96    2
   151     2     1    1
   152    88    94   am
   153    88    89    2
   154   107   104    1
   155   104   103    1
   156   104   105    1
   157    94    95    1
   158    96   103   am
   159    96    95    1
   160   106   105    2
   161    95    98    1
   162    98    99    1
   163    99   100    1
   164   100   101    1
   165   101   102    1
