@<TRIPOS>MOLECULE
tmp/1s7gC01.pdb
 200 193 0 0 0
SMALL
GASTEIGER

@<TRIPOS>ATOM
      1  N         22.0280    3.6690  -20.5750 N.3    32  ILE32      -0.1245
      2  CA        21.0510    4.7500  -20.6540 C.3    32  ILE32       0.1561
      3  C         21.0140    5.2760  -22.0850 C.2    32  ILE32       0.2260
      4  O         21.9180    5.9760  -22.5280 O.2    32  ILE32      -0.2867
      5  CB        21.3940    5.9130  -19.7060 C.3    32  ILE32       0.0252
      6  CG1       21.6330    5.3830  -18.2900 C.3    32  ILE32       0.0019
      7  CG2       20.2450    6.9150  -19.6870 C.3    32  ILE32       0.0019
      8  CD1       21.9640    6.4670  -17.2770 C.3    32  ILE32       0.0001
      9  N         18.3580   10.3700  -26.6170 N.3    35  PHE35      -0.1241
     10  CA        17.0420   10.7110  -27.1730 C.3    35  PHE35       0.1605
     11  C         17.1570   10.7510  -28.7020 C.2    35  PHE35       0.2264
     12  O         16.1870   11.0600  -29.3990 O.2    35  PHE35      -0.2867
     13  CB        16.5830   12.0960  -26.6960 C.3    35  PHE35       0.0534
     14  CG        16.1130   12.1410  -25.2670 C.ar   35  PHE35      -0.0203
     15  CD1       15.6810   13.3440  -24.7110 C.ar   35  PHE35      -0.0042
     16  CD2       16.0780   10.9940  -24.4830 C.ar   35  PHE35      -0.0042
     17  CE1       15.2210   13.4030  -23.3970 C.ar   35  PHE35      -0.0003
     18  CE2       15.6190   11.0420  -23.1670 C.ar   35  PHE35      -0.0003
     19  CZ        15.1910   12.2460  -22.6240 C.ar   35  PHE35      -0.0000
     20  N         12.9100    4.2170  -27.2520 N.3    43  ARG43      -0.1245
     21  CA        12.0310    4.7640  -26.2220 C.3    43  ARG43       0.1563
     22  C         10.6190    4.8800  -26.7810 C.2    43  ARG43       0.2260
     23  O         10.4330    5.2590  -27.9330 O.2    43  ARG43      -0.2867
     24  CB        12.5440    6.1340  -25.7650 C.3    43  ARG43       0.0307
     25  CG        13.8720    6.0810  -25.0190 C.3    43  ARG43       0.0489
     26  CD        14.4310    7.4750  -24.7700 C.3    43  ARG43       0.2205
     27  NE        15.6470    7.4780  -23.9540 N.pl3  43  ARG43      -0.0865
     28  CZ        15.6780    7.2490  -22.6410 C.cat  43  ARG43       0.5346
     29  NH1       14.5550    6.9930  -21.9810 N.pl3  43  ARG43       0.1354
     30  NH2       16.8320    7.2920  -21.9830 N.pl3  43  ARG43       0.1354
     31  N          7.8290   14.0010  -20.2950 N.3    51  ALA51      -0.1245
     32  CA         8.8340   14.5480  -19.3950 C.3    51  ALA51       0.1562
     33  C          8.7810   16.0680  -19.2530 C.2    51  ALA51       0.2260
     34  O          9.8120   16.7270  -19.1170 O.2    51  ALA51      -0.2867
     35  CB        10.2230   14.1110  -19.8400 C.3    51  ALA51       0.0290
     36  N          5.8400    9.2190  -16.5600 N.3    63  PHE63      -0.1241
     37  CA         7.0870    9.9530  -16.4280 C.3    63  PHE63       0.1605
     38  C          8.1780    9.0620  -15.8290 C.2    63  PHE63       0.2264
     39  O          9.3100    9.0370  -16.3180 O.2    63  PHE63      -0.2867
     40  CB         6.8990   11.1730  -15.5340 C.3    63  PHE63       0.0534
     41  CG         8.1830   11.7290  -15.0160 C.ar   63  PHE63      -0.0203
     42  CD1        8.9820   12.5310  -15.8190 C.ar   63  PHE63      -0.0042
     43  CD2        8.6280   11.3990  -13.7390 C.ar   63  PHE63      -0.0042
     44  CE1       10.2070   12.9970  -15.3650 C.ar   63  PHE63      -0.0003
     45  CE2        9.8540   11.8600  -13.2730 C.ar   63  PHE63      -0.0003
     46  CZ        10.6460   12.6610  -14.0880 C.ar   63  PHE63      -0.0000
     47  N          9.2740    6.1740  -18.1810 N.3    66  PHE66      -0.1227
     48  CA        10.1400    6.7060  -19.2270 C.3    66  PHE66       0.1736
     49  C         11.5320    7.0510  -18.7110 C.2    66  PHE66       0.2596
     50  O         12.5370    6.7180  -19.3410 O.2    66  PHE66      -0.2718
     51  CB         9.5000    7.9510  -19.8500 C.3    66  PHE66       0.0547
     52  CG        10.4260    8.7360  -20.7360 C.ar   66  PHE66      -0.0202
     53  CD1       11.2620    9.7110  -20.2000 C.ar   66  PHE66      -0.0042
     54  CD2       10.4490    8.5170  -22.1070 C.ar   66  PHE66      -0.0042
     55  CE1       12.1010   10.4580  -21.0180 C.ar   66  PHE66      -0.0003
     56  CE2       11.2870    9.2590  -22.9340 C.ar   66  PHE66      -0.0003
     57  CZ        12.1120   10.2330  -22.3860 C.ar   66  PHE66      -0.0000
     58  N         11.5870    7.7090  -17.5600 N.am   67  SER67      -0.1938
     59  CA        12.8570    8.1290  -16.9710 C.3    67  SER67       0.2055
     60  C         13.7330    6.9880  -16.4730 C.2    67  SER67       0.2643
     61  O         14.9560    7.0720  -16.5320 O.2    67  SER67      -0.2714
     62  CB        12.6010    9.0970  -15.8130 C.3    67  SER67       0.2130
     63  OG        11.7930   10.1830  -16.2300 O.3    67  SER67      -0.2179
     64  N         13.1130    5.9230  -15.9830 N.am   68  MET68      -0.1962
     65  CA        13.8740    4.7980  -15.4580 C.3    68  MET68       0.1736
     66  C         14.2280    3.7210  -16.4760 C.2    68  MET68       0.2616
     67  O         15.0540    2.8610  -16.1850 O.2    68  MET68      -0.2715
     68  CB        13.1180    4.1470  -14.2970 C.3    68  MET68       0.0427
     69  CG        12.8050    5.0920  -13.1420 C.3    68  MET68       0.0599
     70  SD        14.2720    5.9600  -12.5650 S.3    68  MET68      -0.1393
     71  CE        15.0760    4.6550  -11.5890 C.3    68  MET68       0.0692
     72  N         13.6180    3.7590  -17.6590 N.am   69  GLU69      -0.1963
     73  CA        13.8910    2.7380  -18.6700 C.3    69  GLU69       0.1733
     74  C         15.3620    2.6480  -19.0650 C.2    69  GLU69       0.2616
     75  O         16.0090    3.6490  -19.3770 O.2    69  GLU69      -0.2715
     76  CB        13.0180    2.9540  -19.9160 C.3    69  GLU69       0.0429
     77  CG        13.2010    4.2960  -20.6010 C.3    69  GLU69       0.1163
     78  CD        12.2030    4.5300  -21.7310 C.2    69  GLU69       0.3649
     79  OE1       12.1910    5.6510  -22.2920 O.co2  69  GLU69      -0.2457
     80  OE2       11.4340    3.5950  -22.0570 O.co2  69  GLU69      -0.2457
     81  N         15.8850    1.4300  -19.0300 N.am   70  MET70      -0.1977
     82  CA        17.2720    1.1790  -19.3780 C.3    70  MET70       0.1605
     83  C         17.4220   -0.0750  -20.2190 C.2    70  MET70       0.2287
     84  O         16.4930   -0.8740  -20.3400 O.2    70  MET70      -0.2864
     85  CB        18.1170    1.0340  -18.1190 C.3    70  MET70       0.0413
     86  CG        18.4550    2.3370  -17.4490 C.3    70  MET70       0.0598
     87  SD        19.5300    2.0290  -16.0480 S.3    70  MET70      -0.1393
     88  CE        21.0460    1.5130  -16.8920 C.3    70  MET70       0.0692
     89  N         22.0610    2.2050  -13.5600 N.3    76  ALA76      -0.1245
     90  CA        23.2730    2.3530  -14.3540 C.3    76  ALA76       0.1562
     91  C         24.5230    2.5000  -13.5000 C.2    76  ALA76       0.2260
     92  O         24.4540    2.8800  -12.3340 O.2    76  ALA76      -0.2867
     93  CB        23.1410    3.5530  -15.2840 C.3    76  ALA76       0.0290
     94  N         21.5220   13.7840  -16.0870 N.3   102  ILE102     -0.1231
     95  CA        20.9290   13.8110  -14.7520 C.3   102  ILE102      0.1692
     96  C         21.1660   12.4830  -14.0340 C.2   102  ILE102      0.2592
     97  O         20.5390   12.2020  -13.0180 O.2   102  ILE102     -0.2718
     98  CB        19.4020   14.0210  -14.8210 C.3   102  ILE102      0.0266
     99  CG1       18.7630   12.8580  -15.5890 C.3   102  ILE102      0.0019
    100  CG2       19.0810   15.3610  -15.4860 C.3   102  ILE102      0.0020
    101  CD1       17.2530   12.8280  -15.5300 C.3   102  ILE102      0.0001
    102  N         22.0810   11.6760  -14.5610 N.am  103  ASP103     -0.1974
    103  CA        22.3520   10.3560  -13.9970 C.3   103  ASP103      0.1709
    104  C         23.3880   10.2680  -12.8710 C.2   103  ASP103      0.2293
    105  O         23.5970    9.1980  -12.3140 O.2   103  ASP103     -0.2864
    106  CB        22.7280    9.3940  -15.1360 C.3   103  ASP103      0.1436
    107  CG        24.0000    9.8050  -15.8620 C.2   103  ASP103      0.3671
    108  OD1       24.1630    9.4180  -17.0360 O.co2 103  ASP103     -0.2456
    109  OD2       24.8460   10.5010  -15.2620 O.co2 103  ASP103     -0.2456
    110  N         21.0790   20.3840  -15.8110 N.3   118  HIS118     -0.1241
    111  CA        19.7100   19.8790  -15.7460 C.3   118  HIS118      0.1621
    112  C         19.3660   19.2630  -14.3920 C.2   118  HIS118      0.2264
    113  O         18.3320   18.6070  -14.2440 O.2   118  HIS118     -0.2867
    114  CB        19.4820   18.8570  -16.8590 C.3   118  HIS118      0.0745
    115  CG        19.4620   19.4610  -18.2280 C.ar  118  HIS118      0.0817
    116  ND1       19.6400   18.7190  -19.3740 N.ar  118  HIS118     -0.2268
    117  CD2       19.2780   20.7400  -18.6340 C.ar  118  HIS118      0.1154
    118  CE1       19.5660   19.5140  -20.4270 C.ar  118  HIS118      0.1986
    119  NE2       19.3470   20.7450  -20.0040 N.ar  118  HIS118     -0.2212
    120  N         18.5540   13.4920   -9.9060 N.3   121  MET121     -0.1245
    121  CA        17.5110   12.8690   -9.1160 C.3   121  MET121      0.1570
    122  C         17.9750   12.5650   -7.7030 C.2   121  MET121      0.2261
    123  O         17.3980   11.7110   -7.0290 O.2   121  MET121     -0.2867
    124  CB        17.0370   11.5830   -9.7900 C.3   121  MET121      0.0387
    125  CG        16.7000   11.7450  -11.2530 C.3   121  MET121      0.0595
    126  SD        15.1420   10.9540  -11.6620 S.3   121  MET121     -0.1393
    127  CE        14.4560   12.1260  -12.8080 C.3   121  MET121      0.0692
    128  N         15.1390   17.8050  -11.2760 N.3   162  VAL162     -0.1231
    129  CA        15.8070   17.8930  -12.5570 C.3   162  VAL162      0.1692
    130  C         15.0110   18.9000  -13.3630 C.2   162  VAL162      0.2592
    131  O         13.8640   19.2020  -13.0230 O.2   162  VAL162     -0.2718
    132  CB        15.8030   16.5290  -13.2940 C.3   162  VAL162      0.0266
    133  CG1       16.2780   15.4170  -12.3510 C.3   162  VAL162      0.0020
    134  CG2       14.4170   16.2280  -13.8290 C.3   162  VAL162      0.0020
    135  N         15.6150   19.4310  -14.4160 N.am  163  VAL163     -0.1966
    136  CA        14.9250   20.3880  -15.2590 C.3   163  VAL163      0.1727
    137  C         14.0560   19.6440  -16.2710 C.2   163  VAL163      0.2616
    138  O         14.5660   18.9170  -17.1250 O.2   163  VAL163     -0.2715
    139  CB        15.9270   21.2800  -16.0100 C.3   163  VAL163      0.0290
    140  CG1       15.1800   22.3120  -16.8580 C.3   163  VAL163      0.0023
    141  CG2       16.8650   21.9540  -15.0040 C.3   163  VAL163      0.0023
    142  N         12.7410   19.8060  -16.1590 N.am  164  LEU164     -0.1963
    143  CA        11.8210   19.1600  -17.0850 C.3   164  LEU164      0.1728
    144  C         11.4880   20.1540  -18.1890 C.2   164  LEU164      0.2616
    145  O         11.7190   21.3550  -18.0300 O.2   164  LEU164     -0.2715
    146  CB        10.5370   18.7480  -16.3620 C.3   164  LEU164      0.0311
    147  CG        10.6510   17.7620  -15.1980 C.3   164  LEU164      0.0022
    148  CD1        9.2650   17.5120  -14.6270 C.3   164  LEU164      0.0001
    149  CD2       11.2880   16.4570  -15.6650 C.3   164  LEU164      0.0001
    150  N         10.9610   19.6690  -19.3100 N.am  165  PHE165     -0.1960
    151  CA        10.6070   20.5770  -20.3900 C.3   165  PHE165      0.1771
    152  C          9.5920   21.5650  -19.8390 C.2   165  PHE165      0.2620
    153  O          8.5520   21.1650  -19.3170 O.2   165  PHE165     -0.2715
    154  CB        10.0030   19.8230  -21.5770 C.3   165  PHE165      0.0574
    155  CG        10.9880   18.9600  -22.3150 C.ar  165  PHE165     -0.0200
    156  CD1       11.0070   17.5810  -22.1260 C.ar  165  PHE165     -0.0042
    157  CD2       11.9040   19.5270  -23.1990 C.ar  165  PHE165     -0.0042
    158  CE1       11.9250   16.7760  -22.8090 C.ar  165  PHE165     -0.0003
    159  CE2       12.8260   18.7360  -23.8840 C.ar  165  PHE165     -0.0003
    160  CZ        12.8370   17.3570  -23.6900 C.ar  165  PHE165     -0.0000
    161  N          9.9060   22.8530  -19.9390 N.am  166  GLY166     -0.1940
    162  CA         9.0000   23.8710  -19.4390 C.3   166  GLY166      0.2014
    163  C          9.4600   24.5020  -18.1340 C.2   166  GLY166      0.2638
    164  O          8.6600   25.1040  -17.4180 O.2   166  GLY166     -0.2714
    165  N         10.7420   24.3580  -17.8160 N.am  167  GLU167     -0.1977
    166  CA        11.2940   24.9340  -16.5910 C.3   167  GLU167      0.1602
    167  C         12.6300   25.5940  -16.9240 C.2   167  GLU167      0.2287
    168  O         13.2660   25.2490  -17.9160 O.2   167  GLU167     -0.2864
    169  CB        11.5280   23.8500  -15.5190 C.3   167  GLU167      0.0415
    170  CG        10.3290   22.9540  -15.2010 C.3   167  GLU167      0.1163
    171  CD        10.5490   22.0720  -13.9620 C.2   167  GLU167      0.3649
    172  OE1       11.6610   21.5150  -13.7980 O.co2 167  GLU167     -0.2457
    173  OE2        9.6000   21.9280  -13.1560 O.co2 167  GLU167     -0.2457
    174  N         16.7540   26.7800  -16.2240 N.3   169  LEU169     -0.1245
    175  CA        17.9560   26.0690  -15.7930 C.3   169  LEU169      0.1561
    176  C         18.4490   26.6670  -14.4770 C.2   169  LEU169      0.2260
    177  O         18.1070   27.7960  -14.1420 O.2   169  LEU169     -0.2867
    178  CB        19.0670   26.2170  -16.8410 C.3   169  LEU169      0.0270
    179  CG        18.8950   25.7850  -18.3060 C.3   169  LEU169      0.0019
    180  CD1       18.7720   24.2770  -18.3840 C.3   169  LEU169      0.0001
    181  CD2       17.6770   26.4760  -18.9320 C.3   169  LEU169      0.0001
    182  N         21.3180   21.3260  -27.3650 N.3   196  VAL196     -0.1231
    183  CA        20.5580   21.9090  -26.2560 C.3   196  VAL196      0.1692
    184  C         21.3180   23.0200  -25.5370 C.2   196  VAL196      0.2592
    185  O         22.3780   22.7750  -24.9680 O.2   196  VAL196     -0.2718
    186  CB        20.1910   20.8250  -25.2010 C.3   196  VAL196      0.0266
    187  CG1       19.3850   21.4510  -24.0530 C.3   196  VAL196      0.0020
    188  CG2       19.4070   19.6980  -25.8590 C.3   196  VAL196      0.0020
    189  N         20.7620   24.2300  -25.5540 N.am  197  TYR197     -0.1976
    190  CA        21.3800   25.3830  -24.8990 C.3   197  TYR197      0.1639
    191  C         21.8450   24.9960  -23.5040 C.2   197  TYR197      0.2290
    192  O         21.1200   24.3300  -22.7670 O.2   197  TYR197     -0.2864
    193  CB        20.3740   26.5300  -24.7800 C.3   197  TYR197      0.0560
    194  CG        20.9380   27.7450  -24.0910 C.ar  197  TYR197     -0.0198
    195  CD1       21.6650   28.6970  -24.8010 C.ar  197  TYR197     -0.0009
    196  CD2       20.7910   27.9180  -22.7140 C.ar  197  TYR197     -0.0009
    197  CE1       22.2360   29.7980  -24.1580 C.ar  197  TYR197      0.0417
    198  CE2       21.3610   29.0120  -22.0560 C.ar  197  TYR197      0.0417
    199  CZ        22.0810   29.9470  -22.7860 C.ar  197  TYR197      0.1957
    200  OH        22.6490   31.0200  -22.1430 O.3   197  TYR197     -0.2866
@<TRIPOS>BOND
     1    12    11    2
     2    11    10    1
     3    23    22    2
     4   182   183    1
     5    20    21    1
     6    10    13    1
     7    10     9    1
     8    22    21    1
     9    13    14    1
    10   183   184    1
    11   183   186    1
    12    21    24    1
    13   188   186    1
    14    24    25    1
    15   189   184   am
    16   189   190    1
    17   184   185    2
    18    14    15   ar
    19    14    16   ar
    20   186   187    1
    21    25    26    1
    22   190   193    1
    23   190   191    1
    24   195   197   ar
    25   195   194   ar
    26   193   194    1
    27    26    27    1
    28    15    17   ar
    29    16    18   ar
    30   197   199   ar
    31   194   196   ar
    32    27    28    2
    33   159   160   ar
    34   159   157   ar
    35   160   158   ar
    36   191   192    2
    37    17    19   ar
    38   157   155   ar
    39    18    19   ar
    40    56    57   ar
    41    56    54   ar
    42   158   156   ar
    43   199   200    1
    44   199   198   ar
    45   196   198   ar
    46    28    30    1
    47    28    29    1
    48     4     3    2
    49    57    55   ar
    50   155   156   ar
    51   155   154    1
    52    79    78   ar
    53    54    52   ar
    54     3     2    1
    55    80    78   ar
    56    78    77    1
    57   154   151    1
    58    55    53   ar
    59    52    53   ar
    60    52    51    1
    61     2     1    1
    62     2     5    1
    63    77    76    1
    64   118   119   ar
    65   118   116   ar
    66   151   152    1
    67   151   150    1
    68    84    83    2
    69    31    32    1
    70    83    82    1
    71   119   117   ar
    72   161   152   am
    73   161   162    1
    74    76    73    1
    75    51    48    1
    76    35    32    1
    77   152   153    2
    78     5     7    1
    79     5     6    1
    80   162   163    1
    81    32    33    1
    82    82    81    1
    83    82    85    1
    84    75    74    2
    85   116   115   ar
    86    50    49    2
    87   150   144   am
    88    33    34    2
    89    48    49    1
    90    48    47    1
    91    74    81   am
    92    74    73    1
    93   181   179    1
    94    49    58   am
    95    73    72    1
    96   117   115   ar
    97   180   179    1
    98   179   178    1
    99     6     8    1
   100   115   114    1
   101   144   145    2
   102   144   143    1
   103   163   165   am
   104   163   164    2
   105    85    86    1
   106   168   167    2
   107   165   166    1
   108    72    66   am
   109    58    59    1
   110    86    87    1
   111   138   137    2
   112   143   146    1
   113   143   142    1
   114   108   107   ar
   115    59    60    1
   116    59    62    1
   117   167   166    1
   118    88    87    1
   119   114   111    1
   120   140   139    1
   121   178   175    1
   122   166   169    1
   123    36    37    1
   124    61    60    2
   125    66    67    2
   126    66    65    1
   127    60    64   am
   128    37    38    1
   129    37    40    1
   130   146   147    1
   131    39    38    2
   132   137   142   am
   133   137   136    1
   134    63    62    1
   135   174   175    1
   136    94    95    1
   137   139   136    1
   138   139   141    1
   139    64    65    1
   140   107   109   ar
   141   107   106    1
   142    42    44   ar
   143    42    41   ar
   144   110   111    1
   145   175   176    1
   146   111   112    1
   147   149   147    1
   148    99   101    1
   149    99    98    1
   150    40    41    1
   151   169   170    1
   152   100    98    1
   153    65    68    1
   154    44    46   ar
   155    93    90    1
   156   136   135    1
   157   170   171    1
   158   147   148    1
   159   106   103    1
   160    41    43   ar
   161    98    95    1
   162    95    96    1
   163   102    96   am
   164   102   103    1
   165   176   177    2
   166   135   130   am
   167   112   113    2
   168    90    89    1
   169    90    91    1
   170    68    69    1
   171    46    45   ar
   172    96    97    2
   173   103   104    1
   174   171   172   ar
   175   171   173   ar
   176   134   132    1
   177    43    45   ar
   178    91    92    2
   179   130   131    2
   180   130   129    1
   181   132   129    1
   182   132   133    1
   183    69    70    1
   184   104   105    2
   185   127   126    1
   186    70    71    1
   187   129   128    1
   188   126   125    1
   189   125   124    1
   190   120   121    1
   191   124   121    1
   192   121   122    1
   193   122   123    2
