@<TRIPOS>MOLECULE
tmp/1s7gD00.pdb
 130 126 0 0 0
SMALL
GASTEIGER

@<TRIPOS>ATOM
      1  N         38.3410   21.0190   31.6090 N.3    29  LEU29      -0.1231
      2  CA        38.0430   22.4420   31.5270 C.3    29  LEU29       0.1693
      3  C         38.6510   23.2000   32.7090 C.2    29  LEU29       0.2592
      4  O         39.2920   24.2400   32.5270 O.2    29  LEU29      -0.2718
      5  CB        36.5320   22.6670   31.5220 C.3    29  LEU29       0.0284
      6  CG        36.1190   24.1310   31.3700 C.3    29  LEU29       0.0019
      7  CD1       36.3320   24.5530   29.9230 C.3    29  LEU29       0.0001
      8  CD2       34.6670   24.3150   31.7740 C.3    29  LEU29       0.0001
      9  N         38.4560   22.6710   33.9160 N.am   30  TRP30      -0.1976
     10  CA        38.9700   23.3200   35.1170 C.3    30  TRP30       0.1640
     11  C         40.4630   23.1000   35.3150 C.2    30  TRP30       0.2290
     12  O         41.0250   23.4640   36.3500 O.2    30  TRP30      -0.2864
     13  CB        38.1720   22.8640   36.3420 C.3    30  TRP30       0.0576
     14  CG        36.7130   23.2440   36.2510 C.ar   30  TRP30       0.0006
     15  CD1       35.6410   22.4530   36.5460 C.ar   30  TRP30       0.0946
     16  CD2       36.1730   24.5010   35.8070 C.ar   30  TRP30       0.0152
     17  NE1       34.4700   23.1330   36.3090 N.ar   30  TRP30      -0.2442
     18  CE2       34.7670   24.3930   35.8570 C.ar   30  TRP30       0.0810
     19  CE3       36.7410   25.7050   35.3700 C.ar   30  TRP30       0.0012
     20  CZ2       33.9140   25.4450   35.4860 C.ar   30  TRP30       0.0191
     21  CZ3       35.8900   26.7580   34.9970 C.ar   30  TRP30       0.0001
     22  CH2       34.4920   26.6160   35.0590 C.ar   30  TRP30       0.0015
     23  N         34.6800   31.6820   36.7840 N.3    39  ALA39      -0.1245
     24  CA        33.2800   31.2940   36.9140 C.3    39  ALA39       0.1562
     25  C         32.6180   31.4320   38.2850 C.2    39  ALA39       0.2260
     26  O         31.5870   30.8140   38.5290 O.2    39  ALA39      -0.2867
     27  CB        33.1060   29.8590   36.4040 C.3    39  ALA39       0.0290
     28  N         35.9430   36.3010   33.4410 N.3    51  PHE51      -0.1241
     29  CA        34.7390   35.5520   33.0760 C.3    51  PHE51       0.1605
     30  C         34.3810   35.7550   31.6020 C.2    51  PHE51       0.2264
     31  O         34.0450   34.7980   30.8900 O.2    51  PHE51      -0.2867
     32  CB        33.5360   35.9700   33.9450 C.3    51  PHE51       0.0534
     33  CG        32.2010   35.5280   33.3880 C.ar   51  PHE51      -0.0203
     34  CD1       31.4730   36.3610   32.5430 C.ar   51  PHE51      -0.0042
     35  CD2       31.7160   34.2450   33.6380 C.ar   51  PHE51      -0.0042
     36  CE1       30.2860   35.9220   31.9480 C.ar   51  PHE51      -0.0003
     37  CE2       30.5350   33.7940   33.0530 C.ar   51  PHE51      -0.0003
     38  CZ        29.8170   34.6330   32.2040 C.ar   51  PHE51      -0.0000
     39  N         36.8480   34.0380   29.3280 N.3    54  PHE54      -0.1227
     40  CA        36.5670   32.6040   29.4300 C.3    54  PHE54       0.1736
     41  C         35.3910   32.2720   28.5090 C.2    54  PHE54       0.2596
     42  O         35.4520   31.3130   27.7400 O.2    54  PHE54      -0.2718
     43  CB        36.2320   32.2580   30.8880 C.3    54  PHE54       0.0547
     44  CG        35.6440   30.8840   31.0910 C.ar   54  PHE54      -0.0202
     45  CD1       34.4280   30.7330   31.7550 C.ar   54  PHE54      -0.0042
     46  CD2       36.3220   29.7380   30.6730 C.ar   54  PHE54      -0.0042
     47  CE1       33.8880   29.4520   32.0080 C.ar   54  PHE54      -0.0003
     48  CE2       35.7960   28.4600   30.9160 C.ar   54  PHE54      -0.0003
     49  CZ        34.5780   28.3200   31.5860 C.ar   54  PHE54      -0.0000
     50  N         34.3330   33.0760   28.5770 N.am   55  SER55      -0.1952
     51  CA        33.1540   32.8570   27.7470 C.3    55  SER55       0.1924
     52  C         33.4320   32.9850   26.2530 C.2    55  SER55       0.2314
     53  O         32.9500   32.1750   25.4610 O.2    55  SER55      -0.2863
     54  CB        32.0450   33.8270   28.1420 C.3    55  SER55       0.2116
     55  OG        31.6410   33.5820   29.4780 O.3    55  SER55      -0.2180
     56  N         35.3070   30.0380   24.8680 N.3    58  MET58      -0.1245
     57  CA        34.5200   28.8110   24.8640 C.3    58  MET58       0.1570
     58  C         33.1660   28.9860   24.1740 C.2    58  MET58       0.2261
     59  O         32.2730   28.1710   24.3730 O.2    58  MET58      -0.2867
     60  CB        34.2890   28.3330   26.3040 C.3    58  MET58       0.0387
     61  CG        35.5500   27.9440   27.0610 C.3    58  MET58       0.0595
     62  SD        36.3650   26.4700   26.3900 S.3    58  MET58      -0.1393
     63  CE        37.7890   27.1970   25.5530 C.3    58  MET58       0.0692
     64  N         21.9160   26.7930   29.6710 N.3    90  ILE90      -0.1245
     65  CA        21.8020   28.2440   29.7850 C.3    90  ILE90       0.1561
     66  C         21.7250   28.9830   28.4620 C.2    90  ILE90       0.2260
     67  O         21.7710   30.2120   28.4490 O.2    90  ILE90      -0.2867
     68  CB        23.0080   28.8310   30.5620 C.3    90  ILE90       0.0252
     69  CG1       24.3020   28.5060   29.8160 C.3    90  ILE90       0.0019
     70  CG2       23.0870   28.2370   31.9570 C.3    90  ILE90       0.0019
     71  CD1       25.5460   29.1090   30.4400 C.3    90  ILE90       0.0001
     72  N         19.8300   26.6980   36.0700 N.3   106  HIS106     -0.1241
     73  CA        21.0990   27.4090   36.1740 C.3   106  HIS106      0.1621
     74  C         20.9830   28.8060   35.5840 C.2   106  HIS106      0.2264
     75  O         21.9900   29.4660   35.3250 O.2   106  HIS106     -0.2867
     76  CB        22.2140   26.6310   35.4600 C.3   106  HIS106      0.0745
     77  CG        22.6190   25.3760   36.1660 C.ar  106  HIS106      0.0817
     78  ND1       22.0950   25.0050   37.3850 N.ar  106  HIS106     -0.2268
     79  CD2       23.5020   24.4060   35.8270 C.ar  106  HIS106      0.1154
     80  CE1       22.6350   23.8610   37.7680 C.ar  106  HIS106      0.1986
     81  NE2       23.4920   23.4760   36.8400 N.ar  106  HIS106     -0.2212
     82  N         21.7850   33.0910   29.7880 N.3   109  MET109     -0.1245
     83  CA        22.5040   34.2400   29.2850 C.3   109  MET109      0.1570
     84  C         21.5960   35.2870   28.6800 C.2   109  MET109      0.2261
     85  O         22.0700   36.3440   28.2660 O.2   109  MET109     -0.2867
     86  CB        23.4980   33.7860   28.2160 C.3   109  MET109      0.0387
     87  CG        24.5580   32.8100   28.6980 C.3   109  MET109      0.0595
     88  SD        25.7570   33.5960   29.7870 S.3   109  MET109     -0.1393
     89  CE        26.6420   34.6630   28.6310 C.3   109  MET109      0.0692
     90  N         23.1860   33.9280   34.9980 N.3   150  VAL150     -0.1231
     91  CA        23.4850   32.5170   35.0250 C.3   150  VAL150      0.1692
     92  C         23.9980   32.2980   36.4430 C.2   150  VAL150      0.2592
     93  O         24.4070   33.2430   37.1080 O.2   150  VAL150     -0.2718
     94  CB        24.5880   32.1620   34.0110 C.3   150  VAL150      0.0266
     95  CG1       24.1230   32.4780   32.6030 C.3   150  VAL150      0.0020
     96  CG2       25.8440   32.9460   34.3250 C.3   150  VAL150      0.0020
     97  N         23.9660   31.0640   36.9130 N.am  151  VAL151     -0.1966
     98  CA        24.4520   30.7680   38.2490 C.3   151  VAL151      0.1727
     99  C         25.9650   30.5820   38.2470 C.2   151  VAL151      0.2616
    100  O         26.4930   29.7120   37.5640 O.2   151  VAL151     -0.2715
    101  CB        23.8000   29.4890   38.8040 C.3   151  VAL151      0.0290
    102  CG1       24.3970   29.1520   40.1660 C.3   151  VAL151      0.0023
    103  CG2       22.2960   29.6880   38.9170 C.3   151  VAL151      0.0023
    104  N         26.6580   31.4080   39.0170 N.am  152  LEU152     -0.1963
    105  CA        28.1090   31.3330   39.1260 C.3   152  LEU152      0.1728
    106  C         28.4690   30.6750   40.4680 C.2   152  LEU152      0.2616
    107  O         27.6680   30.7220   41.4100 O.2   152  LEU152     -0.2715
    108  CB        28.6940   32.7510   39.0440 C.3   152  LEU152      0.0311
    109  CG        29.2920   33.2470   37.7170 C.3   152  LEU152      0.0022
    110  CD1       28.5070   32.7340   36.5270 C.3   152  LEU152      0.0001
    111  CD2       29.3380   34.7600   37.7330 C.3   152  LEU152      0.0001
    112  N         29.6440   30.0480   40.5600 N.am  153  PHE153     -0.1974
    113  CA        30.0540   29.4210   41.8220 C.3   153  PHE153      0.1639
    114  C         29.9750   30.4730   42.9210 C.2   153  PHE153      0.2290
    115  O         30.4950   31.5730   42.7620 O.2   153  PHE153     -0.2864
    116  CB        31.4920   28.8980   41.7480 C.3   153  PHE153      0.0560
    117  CG        31.6820   27.7730   40.7820 C.ar  153  PHE153     -0.0200
    118  CD1       32.5040   27.9260   39.6700 C.ar  153  PHE153     -0.0042
    119  CD2       31.0320   26.5680   40.9690 C.ar  153  PHE153     -0.0042
    120  CE1       32.6670   26.8880   38.7610 C.ar  153  PHE153     -0.0003
    121  CE2       31.1900   25.5320   40.0700 C.ar  153  PHE153     -0.0003
    122  CZ        32.0090   25.6910   38.9610 C.ar  153  PHE153     -0.0000
    123  N         21.2500   28.5300   43.6080 N.3   157  LEU157     -0.1245
    124  CA        20.4430   28.0770   42.4730 C.3   157  LEU157      0.1561
    125  C         19.1180   28.8100   42.6370 C.2   157  LEU157      0.2260
    126  O         18.7270   29.1170   43.7580 O.2   157  LEU157     -0.2867
    127  CB        20.1720   26.5720   42.5590 C.3   157  LEU157      0.0270
    128  CG        21.3270   25.5920   42.3510 C.3   157  LEU157      0.0019
    129  CD1       20.8600   24.1900   42.6980 C.3   157  LEU157      0.0001
    130  CD2       21.8120   25.6600   40.9050 C.3   157  LEU157      0.0001
@<TRIPOS>BOND
     1    58    59    2
     2    58    57    1
     3    57    56    1
     4    57    60    1
     5    53    52    2
     6    63    62    1
     7    52    51    1
     8    60    61    1
     9    62    61    1
    10    42    41    2
    11    51    54    1
    12    51    50    1
    13    54    55    1
    14    86    87    1
    15    86    83    1
    16    85    84    2
    17    67    66    2
    18    66    65    1
    19    41    50   am
    20    41    40    1
    21    89    88    1
    22    84    83    1
    23    87    88    1
    24    83    82    1
    25    39    40    1
    26    40    43    1
    27    64    65    1
    28    65    68    1
    29    69    71    1
    30    69    68    1
    31     7     6    1
    32    68    70    1
    33    46    48   ar
    34    46    44   ar
    35    43    44    1
    36    31    30    2
    37    48    49   ar
    38    44    45   ar
    39     6     5    1
    40     6     8    1
    41     5     2    1
    42     2     1    1
    43     2     3    1
    44    49    47   ar
    45    30    29    1
    46    45    47   ar
    47    36    38   ar
    48    36    34   ar
    49    38    37   ar
    50     4     3    2
    51    34    33   ar
    52    95    94    1
    53     3     9   am
    54    37    35   ar
    55    29    28    1
    56    29    32    1
    57    33    35   ar
    58    33    32    1
    59     9    10    1
    60    94    96    1
    61    94    91    1
    62    21    22   ar
    63    21    19   ar
    64    90    91    1
    65    91    92    1
    66    22    20   ar
    67    10    11    1
    68    10    13    1
    69    11    12    2
    70    75    74    2
    71    19    16   ar
    72    76    77    1
    73    76    73    1
    74    20    18   ar
    75    74    73    1
    76    16    18   ar
    77    16    14   ar
    78    79    77   ar
    79    79    81   ar
    80    18    17   ar
    81    72    73    1
    82    77    78   ar
    83    14    13    1
    84    14    15   ar
    85    17    15   ar
    86    27    24    1
    87    92    97   am
    88    92    93    2
    89   110   109    1
    90    23    24    1
    91    81    80   ar
    92    97    98    1
    93    24    25    1
    94    78    80   ar
    95   100    99    2
    96   109   111    1
    97   109   108    1
    98    99    98    1
    99    99   104   am
   100    98   101    1
   101    25    26    2
   102   120   122   ar
   103   120   118   ar
   104   101   103    1
   105   101   102    1
   106   122   121   ar
   107   104   105    1
   108   108   105    1
   109   105   106    1
   110   118   117   ar
   111   121   119   ar
   112   106   112   am
   113   106   107    2
   114   112   113    1
   115   117   119   ar
   116   117   116    1
   117   130   128    1
   118   116   113    1
   119   113   114    1
   120   128   127    1
   121   128   129    1
   122   124   127    1
   123   124   125    1
   124   124   123    1
   125   125   126    2
   126   115   114    2
