@<TRIPOS>MOLECULE
tmp/1s7nD00.pdb
 224 219 0 0 0
SMALL
GASTEIGER

@<TRIPOS>ATOM
      1  N         31.4840    0.4550   82.1160 N.3    32  TRP32      -0.1227
      2  CA        31.8540    1.8700   82.1530 C.3    32  TRP32       0.1737
      3  C         31.4650    2.5290   80.8090 C.2    32  TRP32       0.2595
      4  O         30.8480    3.6220   80.7730 O.2    32  TRP32      -0.2718
      5  CB        33.3440    1.9850   82.4760 C.3    32  TRP32       0.0564
      6  CG        33.9340    3.3500   82.1860 C.ar   32  TRP32       0.0003
      7  CD1       33.7240    4.5180   82.8780 C.ar   32  TRP32       0.0946
      8  CD2       34.8300    3.6570   81.1260 C.ar   32  TRP32       0.0152
      9  NE1       34.4670    5.5550   82.2840 N.ar   32  TRP32      -0.2442
     10  CE2       35.1420    5.0380   81.2110 C.ar   32  TRP32       0.0810
     11  CE3       35.4140    2.8900   80.1020 C.ar   32  TRP32       0.0012
     12  CZ2       36.0050    5.6540   80.3170 C.ar   32  TRP32       0.0191
     13  CZ3       36.2710    3.5090   79.2290 C.ar   32  TRP32       0.0001
     14  CH2       36.5640    4.8700   79.3420 C.ar   32  TRP32       0.0015
     15  N         31.7300    1.8420   79.7130 N.am   33  LEU33      -0.1980
     16  CA        31.4000    2.4000   78.4000 C.3    33  LEU33       0.1596
     17  C         29.9010    2.7360   78.2620 C.2    33  LEU33       0.2287
     18  O         29.5230    3.7350   77.5950 O.2    33  LEU33      -0.2864
     19  CB        31.8140    1.4380   77.2890 C.3    33  LEU33       0.0297
     20  CG        33.3100    1.2930   77.0230 C.3    33  LEU33       0.0022
     21  CD1       33.5530    0.1440   75.9510 C.3    33  LEU33       0.0001
     22  CD2       33.8350    2.6310   76.4580 C.3    33  LEU33       0.0001
     23  N         28.3650    6.0460   78.7130 N.3    36  SER36      -0.1202
     24  CA        28.4850    7.0960   77.6580 C.3    36  SER36       0.2020
     25  C         27.9920    6.6590   76.2880 C.2    36  SER36       0.2618
     26  O         27.7500    7.4800   75.4460 O.2    36  SER36      -0.2717
     27  CB        29.9610    7.5110   77.4250 C.3    36  SER36       0.2103
     28  OG        30.6080    7.7830   78.6560 O.3    36  SER36      -0.2182
     29  N         27.8640    5.3690   76.0670 N.am   37  LEU37      -0.1979
     30  CA        27.5350    4.8660   74.7510 C.3    37  LEU37       0.1596
     31  C         26.4670    3.7600   74.7490 C.2    37  LEU37       0.2287
     32  O         26.4570    2.8970   75.6300 O.2    37  LEU37      -0.2864
     33  CB        28.7960    4.2610   74.2000 C.3    37  LEU37       0.0297
     34  CG        29.9700    5.2300   74.0220 C.3    37  LEU37       0.0022
     35  CD1       31.2670    4.3570   73.8860 C.3    37  LEU37       0.0001
     36  CD2       29.7640    6.0840   72.8160 C.3    37  LEU37       0.0001
     37  N         34.3400   10.7030   63.0300 N.3    94  ILE94      -0.1231
     38  CA        35.2220   10.0020   63.9530 C.3    94  ILE94       0.1692
     39  C         34.5200    9.3470   65.1330 C.2    94  ILE94       0.2593
     40  O         33.5760    9.9220   65.6940 O.2    94  ILE94      -0.2718
     41  CB        36.2860   11.0020   64.4890 C.3    94  ILE94       0.0266
     42  CG1       37.2260   11.3840   63.3470 C.3    94  ILE94       0.0019
     43  CG2       37.0530   10.4790   65.7290 C.3    94  ILE94       0.0020
     44  CD1       37.8660   12.7700   63.5760 C.3    94  ILE94       0.0001
     45  N         35.0260    8.1630   65.5200 N.am   95  GLY95      -0.1942
     46  CA        34.4730    7.4420   66.6770 C.3    95  GLY95       0.2014
     47  C         35.6480    6.9610   67.4930 C.2    95  GLY95       0.2639
     48  O         36.6570    6.6900   66.8980 O.2    95  GLY95      -0.2714
     49  N         35.5640    6.9030   68.8170 N.am   96  TYR96      -0.1959
     50  CA        36.6910    6.3820   69.5990 C.3    96  TYR96       0.1771
     51  C         36.3120    6.0360   70.9890 C.2    96  TYR96       0.2620
     52  O         35.2760    6.4650   71.4710 O.2    96  TYR96      -0.2715
     53  CB        37.8590    7.3860   69.7210 C.3    96  TYR96       0.0574
     54  CG        37.4260    8.8230   70.0600 C.ar   96  TYR96      -0.0198
     55  CD1       36.8560    9.1420   71.2900 C.ar   96  TYR96      -0.0009
     56  CD2       37.5310    9.8340   69.0960 C.ar   96  TYR96      -0.0009
     57  CE1       36.3620   10.4690   71.5820 C.ar   96  TYR96       0.0417
     58  CE2       37.0630   11.1540   69.3520 C.ar   96  TYR96       0.0417
     59  CZ        36.4750   11.4770   70.5880 C.ar   96  TYR96       0.1957
     60  OH        35.9970   12.7810   70.7660 O.3    96  TYR96      -0.2866
     61  N         37.1940    5.2510   71.6090 N.am   97  TRP97      -0.1960
     62  CA        37.1400    4.8920   72.9910 C.3    97  TRP97       0.1771
     63  C         38.4710    4.2660   73.3550 C.2    97  TRP97       0.2619
     64  O         39.1530    3.6690   72.5010 O.2    97  TRP97      -0.2715
     65  CB        35.9980    3.9320   73.3520 C.3    97  TRP97       0.0590
     66  CG        36.0700    2.6060   72.7020 C.ar   97  TRP97       0.0006
     67  CD1       35.6200    2.2820   71.4590 C.ar   97  TRP97       0.0946
     68  CD2       36.5830    1.4110   73.2850 C.ar   97  TRP97       0.0152
     69  NE1       35.8150    0.9390   71.2340 N.ar   97  TRP97      -0.2442
     70  CE2       36.3960    0.3750   72.3390 C.ar   97  TRP97       0.0810
     71  CE3       37.1840    1.1100   74.5340 C.ar   97  TRP97       0.0012
     72  CZ2       36.7860   -0.9600   72.5940 C.ar   97  TRP97       0.0191
     73  CZ3       37.5670   -0.2050   74.8010 C.ar   97  TRP97       0.0001
     74  CH2       37.3700   -1.2390   73.8300 C.ar   97  TRP97       0.0015
     75  N         38.8500    4.4640   74.6170 N.am   98  LEU98      -0.1977
     76  CA        40.0640    3.8850   75.2190 C.3    98  LEU98       0.1596
     77  C         39.6230    3.0010   76.3710 C.2    98  LEU98       0.2287
     78  O         38.5750    3.2420   76.9930 O.2    98  LEU98      -0.2864
     79  CB        40.9390    4.9480   75.8970 C.3    98  LEU98       0.0297
     80  CG        41.7740    5.8660   75.0170 C.3    98  LEU98       0.0022
     81  CD1       42.4070    6.9960   75.9190 C.3    98  LEU98       0.0001
     82  CD2       42.8010    5.0280   74.2510 C.3    98  LEU98       0.0001
     83  N         43.3220    6.2490   80.0660 N.3   103  GLN103     -0.1231
     84  CA        42.9560    7.6510   79.9080 C.3   103  GLN103      0.1698
     85  C         43.9430    8.6130   80.6220 C.2   103  GLN103      0.2593
     86  O         44.7870    8.1760   81.3790 O.2   103  GLN103     -0.2718
     87  CB        41.5570    7.9080   80.4650 C.3   103  GLN103      0.0381
     88  CG        40.4070    7.0770   79.8850 C.3   103  GLN103      0.0905
     89  CD        39.1180    7.3840   80.6840 C.2   103  GLN103      0.2608
     90  OE1       38.2870    8.2320   80.3000 O.2   103  GLN103     -0.2717
     91  NE2       39.0000    6.7500   81.8340 N.am  103  GLN103     -0.0878
     92  N         43.8270    9.9150   80.3700 N.am  104  GLY104     -0.1942
     93  CA        44.6840   10.8630   81.0690 C.3   104  GLY104      0.2014
     94  C         46.1090   10.9220   80.5710 C.2   104  GLY104      0.2639
     95  O         46.9750   11.5270   81.1970 O.2   104  GLY104     -0.2714
     96  N         46.3690   10.2830   79.4430 N.am  105  GLN105     -0.1963
     97  CA        47.7400   10.2900   78.9590 C.3   105  GLN105      0.1733
     98  C         47.9170   10.8610   77.5400 C.2   105  GLN105      0.2617
     99  O         49.0000   10.7960   76.9660 O.2   105  GLN105     -0.2715
    100  CB        48.2830    8.8620   78.9990 C.3   105  GLN105      0.0408
    101  CG        48.2260    8.1510   80.3470 C.3   105  GLN105      0.0908
    102  CD        48.8790    6.7540   80.2140 C.2   105  GLN105      0.2608
    103  OE1       50.0100    6.6350   79.7530 O.2   105  GLN105     -0.2717
    104  NE2       48.1610    5.7100   80.5940 N.am  105  GLN105     -0.0878
    105  N         46.8570   11.4160   76.9600 N.am  106  GLY106     -0.1940
    106  CA        47.0090   11.9220   75.6120 C.3   106  GLY106      0.2014
    107  C         47.0920   10.8470   74.5250 C.2   106  GLY106      0.2639
    108  O         47.3710   11.1630   73.3780 O.2   106  GLY106     -0.2714
    109  N         46.8280    9.5930   74.8580 N.am  107  ILE107     -0.1963
    110  CA        46.8680    8.5510   73.8640 C.3   107  ILE107      0.1727
    111  C         45.8390    8.7750   72.7200 C.2   107  ILE107      0.2616
    112  O         46.2110    8.6310   71.5130 O.2   107  ILE107     -0.2715
    113  CB        46.6300    7.2080   74.4960 C.3   107  ILE107      0.0290
    114  CG1       47.7990    6.8780   75.4330 C.3   107  ILE107      0.0022
    115  CG2       46.5130    6.1490   73.3990 C.3   107  ILE107      0.0023
    116  CD1       47.5930    5.6040   76.3290 C.3   107  ILE107      0.0001
    117  N         44.5920    9.1640   73.0600 N.am  108  MET108     -0.1963
    118  CA        43.6090    9.3760   71.9820 C.3   108  MET108      0.1736
    119  C         43.9940   10.6160   71.1640 C.2   108  MET108      0.2617
    120  O         43.9930   10.5850   69.9310 O.2   108  MET108     -0.2715
    121  CB        42.1840    9.4920   72.5330 C.3   108  MET108      0.0427
    122  CG        41.0670    9.5250   71.4640 C.3   108  MET108      0.0599
    123  SD        41.2580    8.0780   70.3830 S.3   108  MET108     -0.1393
    124  CE        40.7180    6.7240   71.5220 C.3   108  MET108      0.0692
    125  N         44.3210   11.7120   71.8370 N.am  109  SER109     -0.1936
    126  CA        44.7710   12.9270   71.1270 C.3   109  SER109      0.2055
    127  C         46.0060   12.6550   70.1670 C.2   109  SER109      0.2642
    128  O         45.9930   12.9810   68.9930 O.2   109  SER109     -0.2714
    129  CB        45.0960   14.0060   72.1900 C.3   109  SER109      0.2130
    130  OG        43.8760   14.5470   72.7290 O.3   109  SER109     -0.2179
    131  N         47.0510   12.0250   70.6570 N.am  110  GLN110     -0.1976
    132  CA        48.1850   11.7660   69.7790 C.3   110  GLN110      0.1601
    133  C         47.7720   10.8690   68.6100 C.2   110  GLN110      0.2287
    134  O         48.2100   11.0790   67.4630 O.2   110  GLN110     -0.2864
    135  CB        49.3320   11.1350   70.5560 C.3   110  GLN110      0.0394
    136  CG        49.8780   12.0260   71.7030 C.3   110  GLN110      0.0908
    137  CD        50.9000   11.2330   72.5240 C.2   110  GLN110      0.2608
    138  OE1       51.9180   10.8050   71.9940 O.2   110  GLN110     -0.2717
    139  NE2       50.6060   10.9910   73.7910 N.am  110  GLN110     -0.0878
    140  N         33.4730   15.4780   64.5670 N.3   130  ILE130     -0.1231
    141  CA        33.2510   14.7510   65.8120 C.3   130  ILE130      0.1692
    142  C         31.8630   15.1170   66.3520 C.2   130  ILE130      0.2592
    143  O         31.5200   16.3150   66.4740 O.2   130  ILE130     -0.2718
    144  CB        34.3180   15.0480   66.9230 C.3   130  ILE130      0.0266
    145  CG1       35.6230   14.3680   66.5410 C.3   130  ILE130      0.0019
    146  CG2       33.8080   14.5170   68.3270 C.3   130  ILE130      0.0020
    147  CD1       36.8240   14.7530   67.4450 C.3   130  ILE130      0.0001
    148  N         31.0350   14.0960   66.5910 N.am  131  LYS131     -0.1966
    149  CA        29.7020   14.3510   67.1570 C.3   131  LYS131      0.1728
    150  C         29.7250   13.7090   68.5150 C.2   131  LYS131      0.2616
    151  O         29.9960   12.5340   68.6380 O.2   131  LYS131     -0.2715
    152  CB        28.5840   13.6820   66.3320 C.3   131  LYS131      0.0311
    153  CG        28.2410   14.4450   65.1220 C.3   131  LYS131      0.0038
    154  CD        27.8450   13.5160   63.9730 C.3   131  LYS131      0.0206
    155  CE        26.4640   12.9410   64.1250 C.3   131  LYS131      0.1093
    156  NZ        26.1520   12.1890   62.8350 N.3   131  LYS131     -0.1314
    157  N         29.5240   14.4620   69.5800 N.am  132  CYS132     -0.1954
    158  CA        29.5280   13.7900   70.8650 C.3   132  CYS132      0.1843
    159  C         28.5220   14.4540   71.7320 C.2   132  CYS132      0.2625
    160  O         28.2270   15.6650   71.5560 O.2   132  CYS132     -0.2714
    161  CB        30.9100   13.8070   71.4750 C.3   132  CYS132      0.0997
    162  SG        31.6230   15.4860   71.6770 S.3   132  CYS132     -0.0797
    163  N         27.8930   13.6650   72.5960 N.am  133  ARG133     -0.1977
    164  CA        26.9110   14.2350   73.5000 C.3   133  ARG133      0.1597
    165  C         27.4710   15.4940   74.2750 C.2   133  ARG133      0.2287
    166  O         28.6130   15.5030   74.7560 O.2   133  ARG133     -0.2864
    167  CB        26.4710   13.1990   74.5310 C.3   133  ARG133      0.0334
    168  CG        25.5140   12.0810   73.9900 C.3   133  ARG133      0.0492
    169  CD        24.9440   11.2270   75.1490 C.3   133  ARG133      0.2205
    170  NE        26.0970   10.6930   75.8060 N.pl3 133  ARG133     -0.0865
    171  CZ        26.4940   10.9970   77.0450 C.cat 133  ARG133      0.5346
    172  NH1       25.8210   11.8430   77.8410 N.pl3 133  ARG133      0.1354
    173  NH2       27.6060   10.4480   77.4470 N.pl3 133  ARG133      0.1354
    174  N         28.9700   14.6610   77.5030 N.3   136  ASN136     -0.1240
    175  CA        30.1150   13.7210   77.5470 C.3   136  ASN136      0.1653
    176  C         31.3710   14.5980   77.6880 C.2   136  ASN136      0.2266
    177  O         31.8970   15.1580   76.6940 O.2   136  ASN136     -0.2867
    178  CB        30.2160   12.8900   76.2600 C.3   136  ASN136      0.1155
    179  CG        31.3010   11.8110   76.3550 C.2   136  ASN136      0.2627
    180  OD1       32.3310   12.0330   76.9870 O.2   136  ASN136     -0.2716
    181  ND2       31.0820   10.6620   75.7150 N.am  136  ASN136     -0.0877
    182  N         34.6780   14.0240   78.6990 N.3   138  ALA138     -0.1231
    183  CA        35.9200   13.5660   78.1660 C.3   138  ALA138      0.1694
    184  C         35.9160   13.6780   76.6350 C.2   138  ALA138      0.2592
    185  O         36.9100   14.0350   76.0170 O.2   138  ALA138     -0.2718
    186  CB        36.1370   12.1480   78.6160 C.3   138  ALA138      0.0304
    187  N         34.7780   13.4110   76.0050 N.am  139  SER139     -0.1952
    188  CA        34.8020   13.4840   74.5590 C.3   139  SER139      0.1924
    189  C         34.8510   14.9120   74.0180 C.2   139  SER139      0.2314
    190  O         35.5240   15.1690   73.0420 O.2   139  SER139     -0.2863
    191  CB        33.6290   12.7170   73.9670 C.3   139  SER139      0.2116
    192  OG        33.8850   12.5110   72.5830 O.3   139  SER139     -0.2180
    193  N         36.2150   17.3340   75.4260 N.3   141  ALA141     -0.1231
    194  CA        37.5700   17.7510   75.7220 C.3   141  ALA141      0.1694
    195  C         38.4830   17.3100   74.5430 C.2   141  ALA141      0.2591
    196  O         39.3460   18.1020   74.0640 O.2   141  ALA141     -0.2718
    197  CB        38.0680   17.1100   77.1160 C.3   141  ALA141      0.0304
    198  N         38.2820   16.0740   74.0540 N.am  142  VAL142     -0.1980
    199  CA        39.1130   15.5900   72.9680 C.3   142  VAL142      0.1595
    200  C         38.9570   16.5290   71.7840 C.2   142  VAL142      0.2287
    201  O         39.9430   16.9540   71.1650 O.2   142  VAL142     -0.2864
    202  CB        38.7430   14.1150   72.5040 C.3   142  VAL142      0.0276
    203  CG1       39.4510   13.7990   71.1870 C.3   142  VAL142      0.0022
    204  CG2       39.1540   13.0710   73.5630 C.3   142  VAL142      0.0022
    205  N         40.7720   19.8340   72.5240 N.3   145  ARG145     -0.1245
    206  CA        42.2040   19.6980   72.6130 C.3   145  ARG145      0.1563
    207  C         42.7920   19.5340   71.2180 C.2   145  ARG145      0.2260
    208  O         43.9360   19.9440   70.9650 O.2   145  ARG145     -0.2867
    209  CB        42.5660   18.4920   73.5080 C.3   145  ARG145      0.0307
    210  CG        44.0660   18.1340   73.4790 C.3   145  ARG145      0.0489
    211  CD        44.4410   17.1380   74.5840 C.3   145  ARG145      0.2205
    212  NE        44.3630   17.7600   75.9090 N.pl3 145  ARG145     -0.0865
    213  CZ        45.3280   18.5050   76.4580 C.cat 145  ARG145      0.5346
    214  NH1       46.4810   18.7480   75.7930 N.pl3 145  ARG145      0.1354
    215  NH2       45.1560   18.9790   77.6870 N.pl3 145  ARG145      0.1354
    216  N         20.9520   11.9250   70.1320 N.3   158  GLU158     -0.1245
    217  CA        21.5080   10.6210   70.4790 C.3   158  GLU158      0.1567
    218  C         20.7960    9.9210   71.6270 C.2   158  GLU158      0.2260
    219  O         20.6810   10.4510   72.7450 O.2   158  GLU158     -0.2867
    220  CB        23.0030   10.7670   70.8230 C.3   158  GLU158      0.0388
    221  CG        23.7150    9.4060   71.1860 C.3   158  GLU158      0.1160
    222  CD        25.2420    9.5490   71.3010 C.2   158  GLU158      0.3649
    223  OE1       25.7660   10.6390   70.9980 O.co2 158  GLU158     -0.2457
    224  OE2       25.9340    8.5810   71.6950 O.co2 158  GLU158     -0.2457
@<TRIPOS>BOND
     1   156   155    1
     2    37    38    1
     3    42    44    1
     4    42    41    1
     5    38    41    1
     6    38    39    1
     7   154   155    1
     8   154   153    1
     9    41    43    1
    10   140   141    1
    11   153   152    1
    12    39    45   am
    13    39    40    2
    14    45    46    1
    15   141   142    1
    16   141   144    1
    17   152   149    1
    18   142   143    2
    19   142   148   am
    20   145   144    1
    21   145   147    1
    22   148   149    1
    23    46    47    1
    24    48    47    2
    25   144   146    1
    26   149   150    1
    27   134   133    2
    28    47    49   am
    29   150   151    2
    30   150   157   am
    31   133   132    1
    32    49    50    1
    33   128   127    2
    34    56    58   ar
    35    56    54   ar
    36    58    59   ar
    37   157   158    1
    38    50    53    1
    39    50    51    1
    40    53    54    1
    41   132   135    1
    42   132   131    1
    43   120   119    2
    44    54    55   ar
    45   216   217    1
    46   127   131   am
    47   127   126    1
    48   123   122    1
    49   123   124    1
    50   217   220    1
    51   217   218    1
    52   135   136    1
    53    59    60    1
    54    59    57   ar
    55   220   221    1
    56   158   161    1
    57   158   159    1
    58   208   207    2
    59    51    52    2
    60    51    61   am
    61   223   222   ar
    62   126   125    1
    63   126   129    1
    64   119   125   am
    65   119   118    1
    66   201   200    2
    67   221   222    1
    68   203   202    1
    69   207   206    1
    70    69    67   ar
    71    69    70   ar
    72    55    57   ar
    73   222   224   ar
    74    67    66   ar
    75   122   121    1
    76   161   162    1
    77   112   111    2
    78   160   159    2
    79    61    62    1
    80   218   219    2
    81   136   137    1
    82   159   163   am
    83   200   199    1
    84   118   121    1
    85   118   117    1
    86   138   137    2
    87   129   130    1
    88    70    72   ar
    89    70    68   ar
    90    64    63    2
    91   202   199    1
    92   202   204    1
    93   205   206    1
    94   137   139   am
    95   192   191    1
    96    72    74   ar
    97   163   164    1
    98   206   209    1
    99    66    68   ar
   100    66    65    1
   101   111   117   am
   102   111   110    1
   103    36    34    1
   104   199   198    1
   105    62    65    1
   106    62    63    1
   107   190   189    2
   108    68    71   ar
   109    63    75   am
   110   108   107    2
   111   115   113    1
   112   210   209    1
   113   210   211    1
   114   164   165    1
   115   164   167    1
   116    74    73   ar
   117   110   113    1
   118   110   109    1
   119    35    34    1
   120   191   188    1
   121   168   167    1
   122   168   169    1
   123   189   188    1
   124    34    33    1
   125   198   195   am
   126   196   195    2
   127    33    30    1
   128    82    80    1
   129   165   166    2
   130   113   114    1
   131   107   109   am
   132   107   106    1
   133    71    73   ar
   134   195   194    1
   135   188   187    1
   136   211   212    1
   137    75    76    1
   138    31    30    1
   139    31    32    2
   140    30    29    1
   141    80    79    1
   142    80    81    1
   143   169   170    1
   144    76    79    1
   145    76    77    1
   146   193   194    1
   147   114   116    1
   148    26    25    2
   149   106   105    1
   150   181   179   am
   151   194   197    1
   152   214   213    1
   153   170   171    2
   154   212   213    2
   155    21    20    1
   156   187   184   am
   157   185   184    2
   158    29    25   am
   159   178   179    1
   160   178   175    1
   161    25    24    1
   162   179   180    2
   163    77    78    2
   164   213   215    1
   165    22    20    1
   166   184   183    1
   167   177   176    2
   168   105    98   am
   169    99    98    2
   170    20    19    1
   171   171   173    1
   172   171   172    1
   173    19    16    1
   174    27    24    1
   175    27    28    1
   176   174   175    1
   177    98    97    1
   178   175   176    1
   179    18    17    2
   180    24    23    1
   181   183   186    1
   182   183   182    1
   183    17    16    1
   184    16    15    1
   185    97   100    1
   186    97    96    1
   187   100   101    1
   188    13    14   ar
   189    13    11   ar
   190    14    12   ar
   191    96    94   am
   192    15     3   am
   193   103   102    2
   194    88    87    1
   195    88    89    1
   196    84    83    1
   197    84    87    1
   198    84    85    1
   199    11     8   ar
   200   102   101    1
   201   102   104   am
   202    90    89    2
   203    12    10   ar
   204    92    85   am
   205    92    93    1
   206    94    93    1
   207    94    95    2
   208    85    86    2
   209    89    91   am
   210     4     3    2
   211     3     2    1
   212     8    10   ar
   213     8     6   ar
   214    10     9   ar
   215     1     2    1
   216     2     5    1
   217     6     5    1
   218     6     7   ar
   219     9     7   ar
