@<TRIPOS>MOLECULE
tmp/1s8fB02.pdb
 133 130 0 0 0
SMALL
GASTEIGER

@<TRIPOS>ATOM
      1  N         18.2700    1.8330   18.9680 N.3    15  LEU15      -0.1245
      2  CA        17.1640    1.4300   19.8030 C.3    15  LEU15       0.1561
      3  C         17.2910    2.1070   21.1720 C.2    15  LEU15       0.2260
      4  O         18.4140    2.2290   21.6650 O.2    15  LEU15      -0.2867
      5  CB        17.0860   -0.0580   20.1010 C.3    15  LEU15       0.0270
      6  CG        16.3710   -0.9920   19.1420 C.3    15  LEU15       0.0019
      7  CD1       16.3730   -2.4040   19.6970 C.3    15  LEU15       0.0001
      8  CD2       14.9600   -0.5020   18.8550 C.3    15  LEU15       0.0001
      9  N          6.7690    7.7480   12.9050 N.3    41  GLY41      -0.1210
     10  CA         6.9020    6.4950   12.1760 C.3    41  GLY41       0.1956
     11  C          8.3450    6.0340   12.2800 C.2    41  GLY41       0.2611
     12  O          8.8000    5.7770   13.3900 O.2    41  GLY41      -0.2717
     13  N          9.0450    5.9490   11.1590 N.am   42  VAL42      -0.1979
     14  CA        10.4300    5.4750   11.1530 C.3    42  VAL42       0.1595
     15  C         11.1990    6.5010   10.3240 C.2    42  VAL42       0.2287
     16  O         10.5960    7.1050    9.4300 O.2    42  VAL42      -0.2864
     17  CB        10.5540    4.0570   10.5910 C.3    42  VAL42       0.0276
     18  CG1       11.9690    3.7370   10.1490 C.3    42  VAL42       0.0022
     19  CG2       10.0790    3.0490   11.6430 C.3    42  VAL42       0.0022
     20  N         13.3270    4.6670   15.3130 N.3    63  THR63      -0.1218
     21  CA        11.8970    4.8870   15.4670 C.3    63  THR63       0.1862
     22  C         11.6190    6.3620   15.7140 C.2    63  THR63       0.2287
     23  O         12.2780    6.9500   16.5810 O.2    63  THR63      -0.2866
     24  CB        11.3350    3.9950   16.5950 C.3    63  THR63       0.1770
     25  OG1       11.7220    2.6260   16.3900 O.3    63  THR63      -0.2211
     26  CG2        9.8120    4.0250   16.5560 C.3    63  THR63       0.0375
     27  N          6.0720    4.8560   19.6620 N.3    67  GLU67      -0.1231
     28  CA         5.8210    3.8530   18.6120 C.3    67  GLU67       0.1699
     29  C          4.3620    3.4250   18.6320 C.2    67  GLU67       0.2592
     30  O          3.9180    2.6970   19.5200 O.2    67  GLU67      -0.2718
     31  CB         6.7640    2.6640   18.7550 C.3    67  GLU67       0.0402
     32  CG         6.6530    1.9030   20.0680 C.3    67  GLU67       0.1161
     33  CD         8.0010    1.4050   20.5470 C.2    67  GLU67       0.3649
     34  OE1        9.0240    1.7370   19.9090 O.co2  67  GLU67      -0.2457
     35  OE2        8.0290    0.6740   21.5590 O.co2  67  GLU67      -0.2457
     36  N          3.5960    3.8730   17.6390 N.am   68  ARG68      -0.1966
     37  CA         2.1830    3.5000   17.5950 C.3    68  ARG68       0.1729
     38  C          1.8260    2.5520   16.4540 C.2    68  ARG68       0.2616
     39  O          0.9770    1.6630   16.5680 O.2    68  ARG68      -0.2715
     40  CB         1.3830    4.7930   17.5090 C.3    68  ARG68       0.0348
     41  CG         1.9420    5.9320   18.3470 C.3    68  ARG68       0.0492
     42  CD         1.1910    6.3150   19.6020 C.3    68  ARG68       0.2205
     43  NE        -0.2050    5.9600   19.6810 N.pl3  68  ARG68      -0.0865
     44  CZ        -0.9160    5.6180   20.7420 C.cat  68  ARG68       0.5346
     45  NH1       -0.3920    5.5620   21.9600 N.pl3  68  ARG68       0.1354
     46  NH2       -2.2050    5.3140   20.6040 N.pl3  68  ARG68       0.1354
     47  N          2.4650    2.7000   15.3000 N.am   69  PHE69      -0.1960
     48  CA         2.1460    1.8790   14.1260 C.3    69  PHE69       0.1771
     49  C          2.9560    0.6020   14.0800 C.2    69  PHE69       0.2619
     50  O          4.0890    0.4420   13.6160 O.2    69  PHE69      -0.2715
     51  CB         2.3760    2.7010   12.8650 C.3    69  PHE69       0.0574
     52  CG         1.5520    3.9710   12.7930 C.ar   69  PHE69      -0.0200
     53  CD1        2.0280    5.1320   13.3890 C.ar   69  PHE69      -0.0042
     54  CD2        0.3380    4.0010   12.1530 C.ar   69  PHE69      -0.0042
     55  CE1        1.2820    6.2930   13.3280 C.ar   69  PHE69      -0.0003
     56  CE2       -0.4260    5.1510   12.0820 C.ar   69  PHE69      -0.0003
     57  CZ         0.0500    6.2890   12.6930 C.ar   69  PHE69      -0.0000
     58  N          2.3030   -0.4230   14.6120 N.am   70  ARG70      -0.1977
     59  CA         2.9380   -1.6990   14.7160 C.3    70  ARG70       0.1597
     60  C          3.3490   -2.2980   13.3590 C.2    70  ARG70       0.2287
     61  O          4.2020   -3.1910   13.3860 O.2    70  ARG70      -0.2864
     62  CB         2.0110   -2.7110   15.3920 C.3    70  ARG70       0.0334
     63  CG         2.6500   -4.0790   15.5420 C.3    70  ARG70       0.0492
     64  CD         1.5800   -5.1450   15.6270 C.3    70  ARG70       0.2205
     65  NE         2.0350   -6.5270   15.6550 N.pl3  70  ARG70      -0.0865
     66  CZ         1.4540   -7.5500   16.2650 C.cat  70  ARG70       0.5346
     67  NH1        0.3320   -7.4180   16.9600 N.pl3  70  ARG70       0.1354
     68  NH2        1.9970   -8.7610   16.1820 N.pl3  70  ARG70       0.1354
     69  N          5.0650   -0.9640   11.2960 N.3    72  LEU72      -0.1231
     70  CA         6.4230   -0.5330   10.9630 C.3    72  LEU72       0.1693
     71  C          7.4600   -1.3590   11.7030 C.2    72  LEU72       0.2591
     72  O          8.6250   -1.3860   11.3080 O.2    72  LEU72      -0.2718
     73  CB         6.6060    0.9350   11.3170 C.3    72  LEU72       0.0284
     74  CG         5.7820    1.9230   10.4820 C.3    72  LEU72       0.0019
     75  CD1        5.6830    3.2660   11.1770 C.3    72  LEU72       0.0001
     76  CD2        6.4160    2.0260    9.1030 C.3    72  LEU72       0.0001
     77  N          7.0210   -2.0110   12.7830 N.am   73  ARG73      -0.1980
     78  CA         8.0050   -2.7230   13.5940 C.3    73  ARG73       0.1597
     79  C          8.7770   -3.7470   12.8000 C.2    73  ARG73       0.2287
     80  O         10.0130   -3.7790   12.7890 O.2    73  ARG73      -0.2864
     81  CB         7.3120   -3.3830   14.8070 C.3    73  ARG73       0.0334
     82  CG         8.3620   -3.9680   15.7480 C.3    73  ARG73       0.0492
     83  CD         7.8150   -3.9240   17.1810 C.3    73  ARG73       0.2205
     84  NE         6.5850   -4.6630   17.1870 N.pl3  73  ARG73      -0.0865
     85  CZ         5.5920   -4.7400   18.0430 C.cat  73  ARG73       0.5346
     86  NH1        5.5950   -4.0470   19.1680 N.pl3  73  ARG73       0.1354
     87  NH2        4.5790   -5.5460   17.7230 N.pl3  73  ARG73       0.1354
     88  N         11.0170   -2.2780   10.1870 N.3    76  PHE76      -0.1227
     89  CA        12.0490   -1.5100   10.9030 C.3    76  PHE76       0.1736
     90  C         13.2240   -2.4200   11.2510 C.2    76  PHE76       0.2595
     91  O         14.3840   -2.1480   10.9210 O.2    76  PHE76      -0.2718
     92  CB        11.4580   -0.8510   12.1580 C.3    76  PHE76       0.0547
     93  CG        12.5280   -0.2020   13.0290 C.ar   76  PHE76      -0.0202
     94  CD1       13.2520    0.8740   12.5550 C.ar   76  PHE76      -0.0042
     95  CD2       12.8030   -0.6760   14.2990 C.ar   76  PHE76      -0.0042
     96  CE1       14.2460    1.4910   13.2780 C.ar   76  PHE76      -0.0003
     97  CE2       13.7890   -0.0650   15.0450 C.ar   76  PHE76      -0.0003
     98  CZ        14.4950    1.0160   14.5550 C.ar   76  PHE76      -0.0000
     99  N         12.9770   -3.5350   11.9370 N.am   77  TYR77      -0.1976
    100  CA        14.0110   -4.4410   12.3880 C.3    77  TYR77       0.1639
    101  C         14.5920   -5.3250   11.2950 C.2    77  TYR77       0.2290
    102  O         15.7090   -5.8260   11.4060 O.2    77  TYR77      -0.2864
    103  CB        13.4590   -5.3870   13.4740 C.3    77  TYR77       0.0560
    104  CG        13.2890   -4.7030   14.8080 C.ar   77  TYR77      -0.0198
    105  CD1       12.0250   -4.4310   15.2950 C.ar   77  TYR77      -0.0009
    106  CD2       14.3950   -4.3230   15.5710 C.ar   77  TYR77      -0.0009
    107  CE1       11.8390   -3.8060   16.5040 C.ar   77  TYR77       0.0417
    108  CE2       14.2000   -3.6980   16.7870 C.ar   77  TYR77       0.0417
    109  CZ        12.9330   -3.4350   17.2610 C.ar   77  TYR77       0.1957
    110  OH        12.7030   -2.8130   18.4720 O.3    77  TYR77      -0.2866
    111  N         15.0860   -3.6430   25.3710 N.3   101  TRP101     -0.1241
    112  CA        15.3400   -3.3270   23.9660 C.3   101  TRP101      0.1605
    113  C         16.1310   -4.4260   23.2670 C.2   101  TRP101      0.2264
    114  O         15.8550   -4.7730   22.1140 O.2   101  TRP101     -0.2867
    115  CB        16.0740   -1.9900   23.8430 C.3   101  TRP101      0.0550
    116  CG        15.2250   -0.7950   24.1050 C.ar  101  TRP101      0.0003
    117  CD1       15.3880    0.1100   25.1150 C.ar  101  TRP101      0.0946
    118  CD2       14.0780   -0.3510   23.3650 C.ar  101  TRP101      0.0152
    119  NE1       14.4230    1.0810   25.0500 N.ar  101  TRP101     -0.2442
    120  CE2       13.6050    0.8190   23.9840 C.ar  101  TRP101      0.0810
    121  CE3       13.4060   -0.8430   22.2370 C.ar  101  TRP101      0.0012
    122  CZ2       12.4960    1.5300   23.5360 C.ar  101  TRP101      0.0191
    123  CZ3       12.2990   -0.1270   21.7900 C.ar  101  TRP101      0.0001
    124  CH2       11.8600    1.0310   22.4280 C.ar  101  TRP101      0.0015
    125  N         13.8780   -7.3100   22.4860 N.3   104  GLU104     -0.1245
    126  CA        12.9750   -7.0600   21.3510 C.3   104  GLU104      0.1567
    127  C         13.7150   -7.1140   20.0230 C.2   104  GLU104      0.2260
    128  O         13.2570   -7.6560   19.0210 O.2   104  GLU104     -0.2867
    129  CB        12.2780   -5.7130   21.4890 C.3   104  GLU104      0.0388
    130  CG        11.1830   -5.5270   20.4420 C.3   104  GLU104      0.1160
    131  CD        10.3000   -4.3210   20.6910 C.2   104  GLU104      0.3649
    132  OE1        9.6560   -4.2930   21.7590 O.co2 104  GLU104     -0.2457
    133  OE2       10.2490   -3.4140   19.8270 O.co2 104  GLU104     -0.2457
@<TRIPOS>BOND
     1    76    74    1
     2    16    15    2
     3    18    17    1
     4    88    89    1
     5    15    14    1
     6    74    75    1
     7    74    73    1
     8    17    14    1
     9    17    19    1
    10    89    90    1
    11    89    92    1
    12    91    90    2
    13    70    69    1
    14    70    73    1
    15    70    71    1
    16    14    13    1
    17    13    11   am
    18    90    99   am
    19   101   102    2
    20   101   100    1
    21    72    71    2
    22    71    77   am
    23    99   100    1
    24    56    54   ar
    25    56    57   ar
    26    54    52   ar
    27    92    93    1
    28    10    11    1
    29    10     9    1
    30    11    12    2
    31   100   103    1
    32    94    93   ar
    33    94    96   ar
    34    57    55   ar
    35    77    78    1
    36    80    79    2
    37    52    51    1
    38    52    53   ar
    39    79    78    1
    40    51    48    1
    41    93    95   ar
    42    96    98   ar
    43    55    53   ar
    44    60    61    2
    45    60    59    1
    46   103   104    1
    47    78    81    1
    48    50    49    2
    49    49    48    1
    50    49    58   am
    51    48    47    1
    52    95    97   ar
    53    98    97   ar
    54    58    59    1
    55    59    62    1
    56    81    82    1
    57   104   105   ar
    58   104   106   ar
    59   105   107   ar
    60    47    38   am
    61    20    21    1
    62    62    63    1
    63    21    22    1
    64    21    24    1
    65    63    64    1
    66   106   108   ar
    67    64    65    1
    68    65    66    2
    69    22    23    2
    70    82    83    1
    71    68    66    1
    72    66    67    1
    73    25    24    1
    74    38    39    2
    75    38    37    1
    76   107   109   ar
    77    26    24    1
    78   108   109   ar
    79    83    84    1
    80    84    85    2
    81   109   110    1
    82    40    37    1
    83    40    41    1
    84    37    36    1
    85    36    29   am
    86    87    85    1
    87    85    86    1
    88    41    42    1
    89    28    29    1
    90    28    31    1
    91    28    27    1
    92    29    30    2
    93    31    32    1
    94     8     6    1
    95     1     2    1
    96   128   127    2
    97     6     7    1
    98     6     5    1
    99    42    43    1
   100    43    44    2
   101     2     5    1
   102     2     3    1
   103   133   131   ar
   104    34    33   ar
   105   127   126    1
   106    32    33    1
   107   130   131    1
   108   130   129    1
   109    33    35   ar
   110    46    44    1
   111   131   132   ar
   112    44    45    1
   113     3     4    2
   114   126   129    1
   115   126   125    1
   116   123   121   ar
   117   123   124   ar
   118   114   113    2
   119   121   118   ar
   120   124   122   ar
   121   113   112    1
   122   118   120   ar
   123   118   116   ar
   124   122   120   ar
   125   115   112    1
   126   115   116    1
   127   112   111    1
   128   120   119   ar
   129   116   117   ar
   130   119   117   ar
