@<TRIPOS>MOLECULE
tmp/1s8fA00.pdb
 157 153 0 0 0
SMALL
GASTEIGER

@<TRIPOS>ATOM
      1  N          7.0020   12.2040   -3.5960 N.3    12  GLY12      -0.1210
      2  CA         8.2750   12.1600   -2.9050 C.3    12  GLY12       0.1956
      3  C          9.3380   12.8620   -3.7310 C.2    12  GLY12       0.2612
      4  O          9.4520   12.7080   -4.9470 O.2    12  GLY12      -0.2717
      5  N         10.1660   13.6680   -3.0910 N.am   13  GLY13      -0.1942
      6  CA        11.2280   14.3690   -3.7650 C.3    13  GLY13       0.2014
      7  C         10.9270   15.7670   -4.2200 C.2    13  GLY13       0.2639
      8  O         11.8570   16.5050   -4.5740 O.2    13  GLY13      -0.2714
      9  N          9.6790   16.2140   -4.2400 N.am   14  VAL14      -0.1963
     10  CA         9.3840   17.5420   -4.7840 C.3    14  VAL14       0.1727
     11  C          9.8620   18.6950   -3.9090 C.2    14  VAL14       0.2617
     12  O          9.9500   19.8360   -4.3870 O.2    14  VAL14      -0.2715
     13  CB         7.8800   17.7360   -5.0480 C.3    14  VAL14       0.0290
     14  CG1        7.3430   16.6950   -6.0220 C.3    14  VAL14       0.0023
     15  CG2        7.1120   17.7060   -3.7330 C.3    14  VAL14       0.0023
     16  N         10.1810   18.4040   -2.6530 N.am   15  GLY15      -0.1940
     17  CA        10.7840   19.3320   -1.7320 C.3    15  GLY15       0.2014
     18  C          9.9700   19.7570   -0.5360 C.2    15  GLY15       0.2639
     19  O         10.2330   20.8330    0.0090 O.2    15  GLY15      -0.2714
     20  N          9.0270   18.9550   -0.0790 N.am   16  LYS16      -0.1963
     21  CA         8.1450   19.3240    1.0400 C.3    16  LYS16       0.1728
     22  C          8.9130   19.5320    2.3400 C.2    16  LYS16       0.2617
     23  O          8.7240   20.5700    2.9910 O.2    16  LYS16      -0.2715
     24  CB         7.0840   18.2450    1.1690 C.3    16  LYS16       0.0311
     25  CG         6.2330   17.9900   -0.0650 C.3    16  LYS16       0.0038
     26  CD         5.2000   16.9130    0.2270 C.3    16  LYS16       0.0206
     27  CE         5.8520   15.5650    0.4380 C.3    16  LYS16       0.1093
     28  NZ         6.6150   15.0750   -0.7230 N.3    16  LYS16      -0.1314
     29  N          9.7470   18.5840    2.7170 N.am   17  SER17      -0.1936
     30  CA        10.5440   18.6440    3.9480 C.3    17  SER17       0.2055
     31  C         11.3990   19.9040    3.9260 C.2    17  SER17       0.2643
     32  O         11.4860   20.6780    4.8750 O.2    17  SER17      -0.2714
     33  CB        11.3710   17.3840    4.0880 C.3    17  SER17       0.2130
     34  OG        10.6570   16.2340    4.4880 O.3    17  SER17      -0.2179
     35  N         12.0450   20.1510    2.7830 N.am   18  SER18      -0.1949
     36  CA        12.8850   21.3190    2.6170 C.3    18  SER18       0.1924
     37  C         12.1130   22.6240    2.6620 C.2    18  SER18       0.2314
     38  O         12.6220   23.5860    3.2370 O.2    18  SER18      -0.2863
     39  CB        13.6340   21.2280    1.2760 C.3    18  SER18       0.2116
     40  OG        14.3360   19.9980    1.2420 O.3    18  SER18      -0.2180
     41  N         18.3290   25.9030    4.3190 N.3    28  PHE28      -0.1227
     42  CA        18.2780   24.8770    3.2890 C.3    28  PHE28       0.1736
     43  C         19.3680   23.8830    3.6550 C.2    28  PHE28       0.2595
     44  O         20.5560   24.0760    3.4120 O.2    28  PHE28      -0.2718
     45  CB        18.4530   25.4370    1.8800 C.3    28  PHE28       0.0547
     46  CG        18.3370   24.3780    0.8010 C.ar   28  PHE28      -0.0202
     47  CD1       17.1230   23.7810    0.5220 C.ar   28  PHE28      -0.0042
     48  CD2       19.4400   23.9790    0.0640 C.ar   28  PHE28      -0.0042
     49  CE1       16.9960   22.8180   -0.4580 C.ar   28  PHE28      -0.0003
     50  CE2       19.3190   23.0010   -0.9030 C.ar   28  PHE28      -0.0003
     51  CZ        18.1050   22.4040   -1.1780 C.ar   28  PHE28      -0.0000
     52  N         18.9600   22.7950    4.3070 N.am   29  ASP29      -0.1960
     53  CA        19.9600   21.7570    4.5150 C.3    29  ASP29       0.1840
     54  C         19.6200   20.6060    3.5670 C.2    29  ASP29       0.2622
     55  O         18.4260   20.4220    3.3480 O.2    29  ASP29      -0.2715
     56  CB        20.0470   21.3120    5.9680 C.3    29  ASP29       0.1450
     57  CG        21.2890   21.9760    6.5740 C.2    29  ASP29       0.3671
     58  OD1       22.3970   21.6110    6.1260 O.co2  29  ASP29      -0.2456
     59  OD2       21.1010   22.8430    7.4500 O.co2  29  ASP29      -0.2456
     60  N         20.6660   19.9790    3.0880 N.am   30  THR30      -0.1951
     61  CA        20.7570   18.9430    2.0940 C.3    30  THR30       0.1897
     62  C         20.6500   17.5300    2.6410 C.2    30  THR30       0.2313
     63  O         20.5090   16.5800    1.8680 O.2    30  THR30      -0.2863
     64  CB        22.1080   19.0280    1.3310 C.3    30  THR30       0.1794
     65  OG1       22.1770   17.9620    0.3700 O.3    30  THR30      -0.2208
     66  CG2       23.3140   18.8280    2.2360 C.3    30  THR30       0.0378
     67  N         18.2250   16.0100    5.0240 N.3    32  LEU32      -0.1231
     68  CA        17.1100   15.9190    5.9610 C.3    32  LEU32       0.1693
     69  C         16.8160   14.4390    6.1720 C.2    32  LEU32       0.2592
     70  O         17.0970   13.6450    5.2730 O.2    32  LEU32      -0.2718
     71  CB        15.8800   16.6860    5.4740 C.3    32  LEU32       0.0284
     72  CG        16.0150   18.2180    5.4660 C.3    32  LEU32       0.0019
     73  CD1       14.8940   18.8650    4.6610 C.3    32  LEU32       0.0001
     74  CD2       16.0570   18.7600    6.8860 C.3    32  LEU32       0.0001
     75  N         16.2740   14.1230    7.3430 N.am   33  PHE33      -0.1962
     76  CA        15.8750   12.7320    7.5400 C.3    33  PHE33       0.1771
     77  C         14.8080   12.3490    6.5080 C.2    33  PHE33       0.2619
     78  O         14.0220   13.2040    6.1080 O.2    33  PHE33      -0.2715
     79  CB        15.3100   12.5060    8.9220 C.3    33  PHE33       0.0574
     80  CG        16.2580   12.4890   10.0920 C.ar   33  PHE33      -0.0200
     81  CD1       16.7740   13.6850   10.5710 C.ar   33  PHE33      -0.0042
     82  CD2       16.6160   11.3010   10.7120 C.ar   33  PHE33      -0.0042
     83  CE1       17.6210   13.6930   11.6600 C.ar   33  PHE33      -0.0003
     84  CE2       17.4610   11.3090   11.8080 C.ar   33  PHE33      -0.0003
     85  CZ        17.9550   12.5090   12.2830 C.ar   33  PHE33      -0.0000
     86  N         14.8540   11.0890    6.1240 N.am   34  HIS34      -0.1973
     87  CA        13.8350   10.4250    5.3330 C.3    34  HIS34       0.1656
     88  C         12.8590    9.8090    6.3290 C.2    34  HIS34       0.2291
     89  O         13.2540    8.9510    7.1080 O.2    34  HIS34      -0.2864
     90  CB        14.4370    9.3680    4.4130 C.3    34  HIS34       0.0771
     91  CG        15.3740   10.0430    3.4490 C.ar   34  HIS34       0.0820
     92  ND1       14.9930   11.0090    2.5550 N.ar   34  HIS34      -0.2267
     93  CD2       16.6950    9.8440    3.2540 C.ar   34  HIS34       0.1154
     94  CE1       16.0470   11.3890    1.8560 C.ar   34  HIS34       0.1986
     95  NE2       17.0910   10.7010    2.2540 N.ar   34  HIS34      -0.2212
     96  N          3.9780   17.3070    6.7750 N.3    58  ASP58      -0.1225
     97  CA         4.0730   16.7230    5.4290 C.3    58  ASP58       0.1805
     98  C          4.2080   15.2240    5.6250 C.2    58  ASP58       0.2598
     99  O          4.1220   14.7040    6.7350 O.2    58  ASP58      -0.2718
    100  CB         5.1970   17.2910    4.5790 C.3    58  ASP58       0.1424
    101  CG         6.5480   16.6530    4.8190 C.2    58  ASP58       0.3668
    102  OD1        7.2650   16.4040    3.8220 O.co2  58  ASP58      -0.2456
    103  OD2        6.8930   16.4090    5.9970 O.co2  58  ASP58      -0.2456
    104  N          4.3480   14.4980    4.5190 N.am   59  THR59      -0.1953
    105  CA         4.2580   13.0480    4.5850 C.3    59  THR59       0.1897
    106  C          5.2800   12.4310    3.6350 C.2    59  THR59       0.2313
    107  O          5.7530   13.1430    2.7590 O.2    59  THR59      -0.2863
    108  CB         2.8850   12.5300    4.1390 C.3    59  THR59       0.1794
    109  OG1        2.8190   12.6900    2.7060 O.3    59  THR59      -0.2208
    110  CG2        1.7110   13.2940    4.7220 C.3    59  THR59       0.0378
    111  N          7.7200   23.8660   -6.9010 N.3   118  ASN118     -0.1225
    112  CA         9.0030   24.0510   -6.2500 C.3   118  ASN118      0.1785
    113  C         10.1780   23.8130   -7.2050 C.2   118  ASN118      0.2597
    114  O          9.9700   23.3470   -8.3230 O.2   118  ASN118     -0.2718
    115  CB         9.0820   23.1780   -4.9860 C.3   118  ASN118      0.1169
    116  CG        10.2340   23.5000   -4.0700 C.2   118  ASN118      0.2627
    117  OD1       10.5090   24.6650   -3.7510 O.2   118  ASN118     -0.2716
    118  ND2       10.9720   22.4700   -3.6610 N.am  118  ASN118     -0.0877
    119  N         11.3610   24.1770   -6.7450 N.am  119  LYS119     -0.1980
    120  CA        12.6550   24.0040   -7.3700 C.3   119  LYS119      0.1596
    121  C         12.7700   24.8790   -8.6230 C.2   119  LYS119      0.2287
    122  O         13.4160   24.4760   -9.5930 O.2   119  LYS119     -0.2864
    123  CB        12.9070   22.5430   -7.7280 C.3   119  LYS119      0.0298
    124  CG        12.6540   21.5550   -6.5970 C.3   119  LYS119      0.0038
    125  CD        13.4110   20.2710   -6.8460 C.3   119  LYS119      0.0206
    126  CE        13.0470   19.1720   -5.8710 C.3   119  LYS119      0.1093
    127  NZ        13.8130   17.9220   -6.1820 N.3   119  LYS119     -0.1314
    128  N         14.5170   27.3260   -8.9570 N.3   121  ASP121     -0.1225
    129  CA        15.9400   27.5840   -9.1040 C.3   121  ASP121      0.1805
    130  C         16.5770   26.6810  -10.1670 C.2   121  ASP121      0.2597
    131  O         17.6840   26.9470  -10.6340 O.2   121  ASP121     -0.2718
    132  CB        16.6920   27.3890   -7.7840 C.3   121  ASP121      0.1424
    133  CG        16.5430   25.9740   -7.2530 C.2   121  ASP121      0.3668
    134  OD1       17.4220   25.1300   -7.5420 O.co2 121  ASP121     -0.2456
    135  OD2       15.5300   25.7430   -6.5550 O.co2 121  ASP121     -0.2456
    136  N         15.8780   25.6260  -10.5220 N.am  122  ILE122     -0.1980
    137  CA        16.2400   24.6640  -11.5500 C.3   122  ILE122      0.1595
    138  C         15.8010   25.1940  -12.9050 C.2   122  ILE122      0.2287
    139  O         14.6160   25.1850  -13.2400 O.2   122  ILE122     -0.2864
    140  CB        15.6120   23.2930  -11.2150 C.3   122  ILE122      0.0276
    141  CG1       16.0760   22.7600   -9.8550 C.3   122  ILE122      0.0022
    142  CG2       15.8520   22.2840  -12.3180 C.3   122  ILE122      0.0022
    143  CD1       16.0410   21.2640   -9.6670 C.3   122  ILE122      0.0001
    144  N         12.8670   26.2130   -2.1820 N.3   149  ALA149     -0.1231
    145  CA        13.3140   25.9490   -0.8200 C.3   149  ALA149      0.1694
    146  C         14.8140   26.2240   -0.7180 C.2   149  ALA149      0.2591
    147  O         15.3650   26.7380    0.2510 O.2   149  ALA149     -0.2718
    148  CB        12.9650   24.5190   -0.4500 C.3   149  ALA149      0.0304
    149  N         15.5240   25.8730   -1.7950 N.am  150  LYS150     -0.1980
    150  CA        16.9650   26.0850   -1.8360 C.3   150  LYS150      0.1596
    151  C         17.3390   27.5580   -1.7460 C.2   150  LYS150      0.2287
    152  O         18.2410   27.9330   -0.9990 O.2   150  LYS150     -0.2864
    153  CB        17.5520   25.4970   -3.1270 C.3   150  LYS150      0.0298
    154  CG        19.0510   25.7330   -3.2450 C.3   150  LYS150      0.0038
    155  CD        19.6090   25.0640   -4.4980 C.3   150  LYS150      0.0206
    156  CE        21.0150   25.5770   -4.8110 C.3   150  LYS150      0.1093
    157  NZ        21.0010   27.0110   -5.2210 N.3   150  LYS150     -0.1314
@<TRIPOS>BOND
     1   139   138    2
     2   138   137    1
     3   142   140    1
     4   137   140    1
     5   137   136    1
     6   140   141    1
     7   131   130    2
     8   136   130   am
     9   130   129    1
    10   141   143    1
    11   122   121    2
    12   129   128    1
    13   129   132    1
    14   121   120    1
    15   114   113    2
    16   132   133    1
    17   123   120    1
    18   123   124    1
    19   134   133   ar
    20   120   119    1
    21   133   135   ar
    22   113   119   am
    23   113   112    1
    24   111   112    1
    25   125   124    1
    26   125   126    1
    27   112   115    1
    28   127   126    1
    29    14    13    1
    30   157   156    1
    31    13    10    1
    32    13    15    1
    33   115   116    1
    34     4     3    2
    35   156   155    1
    36    10     9    1
    37    10    11    1
    38     8     7    2
    39   155   154    1
    40    12    11    2
    41     9     7   am
    42     7     6    1
    43   116   117    2
    44   116   118   am
    45    11    16   am
    46     6     5    1
    47     3     5   am
    48     3     2    1
    49     1     2    1
    50   154   153    1
    51   153   150    1
    52    16    17    1
    53   144   145    1
    54   150   149    1
    55   150   151    1
    56   149   146   am
    57   151   152    2
    58    17    18    1
    59    51    50   ar
    60    51    49   ar
    61    50    48   ar
    62   145   146    1
    63   145   148    1
    64    28    27    1
    65   146   147    2
    66    18    20   am
    67    18    19    2
    68    49    47   ar
    69    20    21    1
    70    25    26    1
    71    25    24    1
    72    48    46   ar
    73    26    27    1
    74    65    64    1
    75    47    46   ar
    76    46    45    1
    77    21    24    1
    78    21    22    1
    79    40    39    1
    80    39    36    1
    81    64    61    1
    82    64    66    1
    83    94    95   ar
    84    94    92   ar
    85    63    62    2
    86    45    42    1
    87    61    62    1
    88    61    60    1
    89    95    93   ar
    90    22    29   am
    91    22    23    2
    92    92    91   ar
    93    36    37    1
    94    36    35    1
    95    37    38    2
    96   109   108    1
    97    29    30    1
    98   107   106    2
    99    35    31   am
   100    60    54   am
   101    93    91   ar
   102    42    43    1
   103    42    41    1
   104    55    54    2
   105    44    43    2
   106    91    90    1
   107    54    53    1
   108   106   105    1
   109    43    52   am
   110   102   101   ar
   111    31    30    1
   112    31    32    2
   113    30    33    1
   114    33    34    1
   115   108   105    1
   116   108   110    1
   117    52    53    1
   118    90    87    1
   119    53    56    1
   120   104   105    1
   121   104    98   am
   122   100   101    1
   123   100    97    1
   124    73    72    1
   125   101   103   ar
   126    67    68    1
   127    70    69    2
   128    87    86    1
   129    87    88    1
   130    97    98    1
   131    97    96    1
   132    72    71    1
   133    72    74    1
   134    71    68    1
   135    98    99    2
   136    68    69    1
   137    56    57    1
   138    78    77    2
   139    86    77   am
   140    58    57   ar
   141    69    75   am
   142    88    89    2
   143    77    76    1
   144    57    59   ar
   145    75    76    1
   146    76    79    1
   147    79    80    1
   148    80    81   ar
   149    80    82   ar
   150    81    83   ar
   151    82    84   ar
   152    83    85   ar
   153    84    85   ar
