@<TRIPOS>MOLECULE
tmp/1s8fA01.pdb
 112 109 0 0 0
SMALL
GASTEIGER

@<TRIPOS>ATOM
      1  N          7.0020   12.2040   -3.5960 N.3    12  GLY12      -0.1210
      2  CA         8.2750   12.1600   -2.9050 C.3    12  GLY12       0.1956
      3  C          9.3380   12.8620   -3.7310 C.2    12  GLY12       0.2612
      4  O          9.4520   12.7080   -4.9470 O.2    12  GLY12      -0.2717
      5  N         10.1660   13.6680   -3.0910 N.am   13  GLY13      -0.1956
      6  CA        11.2280   14.3690   -3.7650 C.3    13  GLY13       0.1869
      7  C         10.9270   15.7670   -4.2200 C.2    13  GLY13       0.2309
      8  O         11.8570   16.5050   -4.5740 O.2    13  GLY13      -0.2863
      9  N          9.0270   18.9550   -0.0790 N.3    16  LYS16      -0.1231
     10  CA         8.1450   19.3240    1.0400 C.3    16  LYS16       0.1693
     11  C          8.9130   19.5320    2.3400 C.2    16  LYS16       0.2592
     12  O          8.7240   20.5700    2.9910 O.2    16  LYS16      -0.2718
     13  CB         7.0840   18.2450    1.1690 C.3    16  LYS16       0.0285
     14  CG         6.2330   17.9900   -0.0650 C.3    16  LYS16       0.0035
     15  CD         5.2000   16.9130    0.2270 C.3    16  LYS16       0.0206
     16  CE         5.8520   15.5650    0.4380 C.3    16  LYS16       0.1093
     17  NZ         6.6150   15.0750   -0.7230 N.3    16  LYS16      -0.1314
     18  N          9.7470   18.5840    2.7170 N.am   17  SER17      -0.1952
     19  CA        10.5440   18.6440    3.9480 C.3    17  SER17       0.1924
     20  C         11.3990   19.9040    3.9260 C.2    17  SER17       0.2314
     21  O         11.4860   20.6780    4.8750 O.2    17  SER17      -0.2863
     22  CB        11.3710   17.3840    4.0880 C.3    17  SER17       0.2116
     23  OG        10.6570   16.2340    4.4880 O.3    17  SER17      -0.2180
     24  N         16.2740   14.1230    7.3430 N.3    33  PHE33      -0.1227
     25  CA        15.8750   12.7320    7.5400 C.3    33  PHE33       0.1736
     26  C         14.8080   12.3490    6.5080 C.2    33  PHE33       0.2595
     27  O         14.0220   13.2040    6.1080 O.2    33  PHE33      -0.2718
     28  CB        15.3100   12.5060    8.9220 C.3    33  PHE33       0.0547
     29  CG        16.2580   12.4890   10.0920 C.ar   33  PHE33      -0.0202
     30  CD1       16.7740   13.6850   10.5710 C.ar   33  PHE33      -0.0042
     31  CD2       16.6160   11.3010   10.7120 C.ar   33  PHE33      -0.0042
     32  CE1       17.6210   13.6930   11.6600 C.ar   33  PHE33      -0.0003
     33  CE2       17.4610   11.3090   11.8080 C.ar   33  PHE33      -0.0003
     34  CZ        17.9550   12.5090   12.2830 C.ar   33  PHE33      -0.0000
     35  N         14.8540   11.0890    6.1240 N.am   34  HIS34      -0.1961
     36  CA        13.8350   10.4250    5.3330 C.3    34  HIS34       0.1787
     37  C         12.8590    9.8090    6.3290 C.2    34  HIS34       0.2621
     38  O         13.2540    8.9510    7.1080 O.2    34  HIS34      -0.2715
     39  CB        14.4370    9.3680    4.4130 C.3    34  HIS34       0.0785
     40  CG        15.3740   10.0430    3.4490 C.ar   34  HIS34       0.0821
     41  ND1       14.9930   11.0090    2.5550 N.ar   34  HIS34      -0.2267
     42  CD2       16.6950    9.8440    3.2540 C.ar   34  HIS34       0.1154
     43  CE1       16.0470   11.3890    1.8560 C.ar   34  HIS34       0.1986
     44  NE2       17.0910   10.7010    2.2540 N.ar   34  HIS34      -0.2212
     45  N         11.6330   10.3120    6.2810 N.am   35  THR35      -0.1937
     46  CA        10.6530    9.8090    7.2320 C.3    35  THR35       0.2028
     47  C          9.6420    8.9060    6.5180 C.2    35  THR35       0.2642
     48  O          8.8980    9.3130    5.6220 O.2    35  THR35      -0.2714
     49  CB         9.9090   10.9130    7.9920 C.3    35  THR35       0.1808
     50  OG1       10.8620   11.6530    8.7920 O.3    35  THR35      -0.2208
     51  CG2        8.8900   10.3180    8.9290 C.3    35  THR35       0.0379
     52  N          9.6220    7.6670    6.9850 N.am   36  ILE36      -0.1977
     53  CA         8.5620    6.7370    6.6430 C.3    36  ILE36       0.1596
     54  C          7.4330    6.9530    7.6650 C.2    36  ILE36       0.2287
     55  O          7.4200    6.3890    8.7570 O.2    36  ILE36      -0.2864
     56  CB         9.0680    5.3030    6.5740 C.3    36  ILE36       0.0276
     57  CG1       10.2070    5.1030    5.5600 C.3    36  ILE36       0.0022
     58  CG2        7.9130    4.3690    6.2590 C.3    36  ILE36       0.0022
     59  CD1       10.8240    3.7230    5.5670 C.3    36  ILE36       0.0001
     60  N          5.6910   14.0760    9.4080 N.3    39  GLU39      -0.1245
     61  CA         6.6150   14.9710   10.0910 C.3    39  GLU39       0.1567
     62  C          5.9060   16.2910   10.3370 C.2    39  GLU39       0.2260
     63  O          5.0350   16.6540    9.5500 O.2    39  GLU39      -0.2867
     64  CB         7.8460   15.3270    9.2590 C.3    39  GLU39       0.0388
     65  CG         8.2680   14.3560    8.1840 C.3    39  GLU39       0.1160
     66  CD         9.4280   14.8430    7.3430 C.2    39  GLU39       0.3649
     67  OE1       10.5440   14.2840    7.4720 O.co2  39  GLU39      -0.2457
     68  OE2        9.1830   15.7710    6.5570 O.co2  39  GLU39      -0.2457
     69  N          3.9780   17.3070    6.7750 N.3    58  ASP58      -0.1225
     70  CA         4.0730   16.7230    5.4290 C.3    58  ASP58       0.1805
     71  C          4.2080   15.2240    5.6250 C.2    58  ASP58       0.2598
     72  O          4.1220   14.7040    6.7350 O.2    58  ASP58      -0.2718
     73  CB         5.1970   17.2910    4.5790 C.3    58  ASP58       0.1424
     74  CG         6.5480   16.6530    4.8190 C.2    58  ASP58       0.3668
     75  OD1        7.2650   16.4040    3.8220 O.co2  58  ASP58      -0.2456
     76  OD2        6.8930   16.4090    5.9970 O.co2  58  ASP58      -0.2456
     77  N          4.3480   14.4980    4.5190 N.am   59  THR59      -0.1939
     78  CA         4.2580   13.0480    4.5850 C.3    59  THR59       0.2028
     79  C          5.2800   12.4310    3.6350 C.2    59  THR59       0.2642
     80  O          5.7530   13.1430    2.7590 O.2    59  THR59      -0.2714
     81  CB         2.8850   12.5300    4.1390 C.3    59  THR59       0.1808
     82  OG1        2.8190   12.6900    2.7060 O.3    59  THR59      -0.2208
     83  CG2        1.7110   13.2940    4.7220 C.3    59  THR59       0.0379
     84  N          5.5410   11.1610    3.8340 N.am   60  ALA60      -0.1963
     85  CA         6.1570   10.3200    2.8180 C.3    60  ALA60       0.1728
     86  C          5.2890   10.3070    1.5580 C.2    60  ALA60       0.2617
     87  O          4.0660   10.2250    1.6590 O.2    60  ALA60      -0.2715
     88  CB         6.3050    8.9180    3.3570 C.3    60  ALA60       0.0334
     89  N          5.8520   10.3650    0.3550 N.am   61  GLY61      -0.1940
     90  CA         5.0240   10.4470   -0.8420 C.3    61  GLY61       0.2014
     91  C          4.7160    9.1310   -1.5150 C.2    61  GLY61       0.2638
     92  O          3.8190    9.0850   -2.3800 O.2    61  GLY61      -0.2714
     93  N          5.4050    8.0590   -1.1230 N.am   62  GLN62      -0.1977
     94  CA         5.1900    6.7700   -1.7870 C.3    62  GLN62       0.1601
     95  C          3.7950    6.2060   -1.5790 C.2    62  GLN62       0.2287
     96  O          3.2310    6.2200   -0.4960 O.2    62  GLN62      -0.2864
     97  CB         6.2060    5.7190   -1.3200 C.3    62  GLN62       0.0394
     98  CG         7.6260    6.1450   -1.6620 C.3    62  GLN62       0.0908
     99  CD         8.2890    6.8700   -0.5020 C.2    62  GLN62       0.2608
    100  OE1        7.6150    7.5880    0.2410 O.2    62  GLN62      -0.2717
    101  NE2        9.5930    6.6520   -0.4050 N.am   62  GLN62      -0.0878
    102  N          3.0070    3.9650    1.3290 N.3    65  PHE65      -0.1241
    103  CA         2.9760    4.4690    2.7260 C.3    65  PHE65       0.1605
    104  C          1.7090    5.2480    3.0110 C.2    65  PHE65       0.2264
    105  O          1.6390    5.9630    4.0120 O.2    65  PHE65      -0.2867
    106  CB         4.2170    5.3010    3.0190 C.3    65  PHE65       0.0534
    107  CG         5.4920    4.4740    2.9720 C.ar   65  PHE65      -0.0203
    108  CD1        5.5570    3.1890    3.4670 C.ar   65  PHE65      -0.0042
    109  CD2        6.6370    5.0230    2.4150 C.ar   65  PHE65      -0.0042
    110  CE1        6.7530    2.4910    3.3950 C.ar   65  PHE65      -0.0003
    111  CE2        7.8130    4.3260    2.3090 C.ar   65  PHE65      -0.0003
    112  CZ         7.8710    3.0350    2.7880 C.ar   65  PHE65      -0.0000
@<TRIPOS>BOND
     1     4     3    2
     2     8     7    2
     3     7     6    1
     4     6     5    1
     5     3     5   am
     6     3     2    1
     7     1     2    1
     8    92    91    2
     9    94    95    1
    10    94    97    1
    11    94    93    1
    12    98    97    1
    13    98    99    1
    14    95    96    2
    15    91    93   am
    16    91    90    1
    17    90    89    1
    18    17    16    1
    19    99   101   am
    20    99   100    2
    21     9    10    1
    22    14    15    1
    23    14    13    1
    24    15    16    1
    25    89    86   am
    26    10    13    1
    27    10    11    1
    28   102   103    1
    29    86    87    2
    30    86    85    1
    31    43    44   ar
    32    43    41   ar
    33    44    42   ar
    34   111   109   ar
    35   111   112   ar
    36    11    18   am
    37    11    12    2
    38   109   107   ar
    39    41    40   ar
    40    82    81    1
    41    18    19    1
    42   103   104    1
    43   103   106    1
    44    80    79    2
    45   112   110   ar
    46    85    88    1
    47    85    84    1
    48   107   106    1
    49   107   108   ar
    50   104   105    2
    51    42    40   ar
    52   110   108   ar
    53    40    39    1
    54    79    84   am
    55    79    78    1
    56    75    74   ar
    57    20    19    1
    58    20    21    2
    59    19    22    1
    60    22    23    1
    61    81    78    1
    62    81    83    1
    63    39    36    1
    64    77    78    1
    65    77    71   am
    66    73    74    1
    67    73    70    1
    68    74    76   ar
    69    36    35    1
    70    36    37    1
    71    70    71    1
    72    70    69    1
    73    57    59    1
    74    57    56    1
    75    48    47    2
    76    71    72    2
    77    27    26    2
    78    35    26   am
    79    58    56    1
    80    45    37   am
    81    45    46    1
    82    37    38    2
    83    26    25    1
    84    47    52   am
    85    47    46    1
    86    68    66   ar
    87    56    53    1
    88    53    52    1
    89    53    54    1
    90    46    49    1
    91    24    25    1
    92    66    67   ar
    93    66    65    1
    94    25    28    1
    95    54    55    2
    96    49    50    1
    97    49    51    1
    98    65    64    1
    99    28    29    1
   100    64    61    1
   101    60    61    1
   102    63    62    2
   103    61    62    1
   104    29    30   ar
   105    29    31   ar
   106    30    32   ar
   107    31    33   ar
   108    32    34   ar
   109    33    34   ar
