@<TRIPOS>MOLECULE
tmp/1s8gA00.pdb
 140 133 0 0 0
SMALL
GASTEIGER

@<TRIPOS>ATOM
      1  N         17.6740   31.8930   -5.0330 N.3     2  LEU2       -0.1231
      2  CA        18.9650   32.4590   -4.6440 C.3     2  LEU2        0.1693
      3  C         19.3800   33.6180   -5.5510 C.2     2  LEU2        0.2591
      4  O         20.0590   34.5270   -5.1040 O.2     2  LEU2       -0.2718
      5  CB        20.0500   31.3710   -4.6600 C.3     2  LEU2        0.0284
      6  CG        19.9510   30.3280   -3.5410 C.3     2  LEU2        0.0019
      7  CD1       20.6120   29.0140   -3.9440 C.3     2  LEU2        0.0001
      8  CD2       20.5820   30.8570   -2.2620 C.3     2  LEU2        0.0001
      9  N         18.9790   33.5800   -6.8200 N.am    3  LEU3       -0.1980
     10  CA        19.2260   34.6910   -7.7310 C.3     3  LEU3        0.1596
     11  C         18.6630   36.0120   -7.1850 C.2     3  LEU3        0.2287
     12  O         19.3910   36.9970   -7.0670 O.2     3  LEU3       -0.2864
     13  CB        18.6100   34.4040   -9.1170 C.3     3  LEU3        0.0297
     14  CG        19.2880   34.9550  -10.3820 C.3     3  LEU3        0.0022
     15  CD1       18.2660   35.0810  -11.5000 C.3     3  LEU3        0.0001
     16  CD2       19.9600   36.3210  -10.1570 C.3     3  LEU3        0.0001
     17  N         17.5460   36.7320   -4.1260 N.3     5  LEU5       -0.1231
     18  CA        18.1090   37.0220   -2.8080 C.3     5  LEU5        0.1693
     19  C         19.4360   37.7700   -2.9260 C.2     5  LEU5        0.2593
     20  O         19.6500   38.7660   -2.2420 O.2     5  LEU5       -0.2718
     21  CB        18.3020   35.7160   -2.0120 C.3     5  LEU5        0.0284
     22  CG        19.0690   35.7950   -0.6880 C.3     5  LEU5        0.0019
     23  CD1       18.4050   36.7700    0.2720 C.3     5  LEU5        0.0001
     24  CD2       19.1720   34.4090   -0.0660 C.3     5  LEU5        0.0001
     25  N         20.3150   37.2830   -3.7950 N.am    6  GLY6       -0.1942
     26  CA        21.6140   37.8970   -4.0050 C.3     6  GLY6        0.2014
     27  C         21.5400   39.2900   -4.6040 C.2     6  GLY6        0.2638
     28  O         22.3520   40.1510   -4.2750 O.2     6  GLY6       -0.2714
     29  N         20.5620   39.5220   -5.4870 N.am    7  LYS7       -0.1977
     30  CA        20.3830   40.8330   -6.1440 C.3     7  LYS7        0.1596
     31  C         19.8690   41.8220   -5.0920 C.2     7  LYS7        0.2287
     32  O         20.3300   42.9600   -5.0730 O.2     7  LYS7       -0.2864
     33  CB        19.3080   40.6840   -7.2760 C.3     7  LYS7        0.0298
     34  CG        19.3810   41.4870   -8.5800 C.3     7  LYS7        0.0038
     35  CD        18.9590   40.4960   -9.6090 C.3     7  LYS7        0.0206
     36  CE        19.5930   40.7320  -10.9380 C.3     7  LYS7        0.1093
     37  NZ        18.6770   40.5830  -12.1360 N.3     7  LYS7       -0.1314
     38  N         20.3740   41.7430   -1.8270 N.3     9  ILE9       -0.1245
     39  CA        21.4330   42.0060   -0.8530 C.3     9  ILE9        0.1561
     40  C         22.4770   42.9730   -1.4120 C.2     9  ILE9        0.2260
     41  O         23.0010   43.7970   -0.6730 O.2     9  ILE9       -0.2867
     42  CB        22.0790   40.6800   -0.3750 C.3     9  ILE9        0.0252
     43  CG1       21.1150   39.9440    0.5660 C.3     9  ILE9        0.0019
     44  CG2       23.4150   40.9320    0.3400 C.3     9  ILE9        0.0019
     45  CD1       21.5310   38.5290    0.9160 C.3     9  ILE9        0.0001
     46  N         28.7090   42.1490   -2.3980 N.3    16  ASN16      -0.1225
     47  CA        28.4360   40.8900   -3.0580 C.3    16  ASN16       0.1785
     48  C         27.9150   39.9240   -1.9930 C.2    16  ASN16       0.2597
     49  O         28.5300   39.7810   -0.9300 O.2    16  ASN16      -0.2718
     50  CB        29.6890   40.3370   -3.7260 C.3    16  ASN16       0.1169
     51  CG        29.4050   39.1350   -4.5990 C.2    16  ASN16       0.2627
     52  OD1       29.3300   38.0100   -4.1150 O.2    16  ASN16      -0.2716
     53  ND2       29.2440   39.3680   -5.8940 N.am   16  ASN16      -0.0877
     54  N         26.7980   39.2640   -2.2610 N.am   17  ALA17      -0.1966
     55  CA        26.1300   38.4220   -1.2660 C.3    17  ALA17       0.1728
     56  C         26.8760   37.1440   -0.9160 C.2    17  ALA17       0.2616
     57  O         26.8400   36.7030    0.2290 O.2    17  ALA17      -0.2715
     58  CB        24.7000   38.1090   -1.7290 C.3    17  ALA17       0.0334
     59  N         27.5420   36.5410   -1.8880 N.am   18  ILE18      -0.1977
     60  CA        28.3000   35.3170   -1.6310 C.3    18  ILE18       0.1596
     61  C         29.5830   35.6170   -0.8530 C.2    18  ILE18       0.2287
     62  O         29.8810   34.9510    0.1360 O.2    18  ILE18      -0.2864
     63  CB        28.6090   34.5750   -2.9570 C.3    18  ILE18       0.0276
     64  CG1       27.3120   33.9890   -3.5290 C.3    18  ILE18       0.0022
     65  CG2       29.6180   33.4570   -2.7520 C.3    18  ILE18       0.0022
     66  CD1       27.3290   33.7930   -5.0270 C.3    18  ILE18       0.0001
     67  N         28.3550   37.5690    2.6920 N.3    21  TYR21      -0.1227
     68  CA        27.3630   36.8770    3.5380 C.3    21  TYR21       0.1736
     69  C         27.1990   35.3670    3.2500 C.2    21  TYR21       0.2596
     70  O         26.4330   34.7020    3.9570 O.2    21  TYR21      -0.2718
     71  CB        26.0080   37.5650    3.3710 C.3    21  TYR21       0.0548
     72  CG        26.0190   39.0240    3.7550 C.ar   21  TYR21      -0.0200
     73  CD1       26.0780   39.4090    5.0890 C.ar   21  TYR21      -0.0009
     74  CD2       25.9710   40.0230    2.7860 C.ar   21  TYR21      -0.0009
     75  CE1       26.0890   40.7520    5.4480 C.ar   21  TYR21       0.0417
     76  CE2       25.9810   41.3670    3.1380 C.ar   21  TYR21       0.0417
     77  CZ        26.0410   41.7230    4.4700 C.ar   21  TYR21       0.1957
     78  OH        26.0520   43.0500    4.8300 O.3    21  TYR21      -0.2866
     79  N         27.8970   34.8420    2.2610 N.am   22  GLY22      -0.1957
     80  CA        27.7900   33.4360    1.9070 C.3    22  GLY22       0.1869
     81  C         28.3720   32.4800    2.9270 C.2    22  GLY22       0.2309
     82  O         28.1070   31.2820    2.8640 O.2    22  GLY22      -0.2863
     83  N         24.8750   31.7300   10.7710 N.3    27  ASN27      -0.1225
     84  CA        23.5410   31.7100   10.1390 C.3    27  ASN27       0.1785
     85  C         23.4990   32.2100    8.6830 C.2    27  ASN27       0.2597
     86  O         22.5790   31.8270    7.9540 O.2    27  ASN27      -0.2718
     87  CB        22.5830   32.5490   10.9910 C.3    27  ASN27       0.1169
     88  CG        22.3750   31.9680   12.3740 C.2    27  ASN27       0.2627
     89  OD1       21.4910   31.1410   12.5740 O.2    27  ASN27      -0.2716
     90  ND2       23.1870   32.3950   13.3350 N.am   27  ASN27      -0.0877
     91  N         24.4430   33.0410    8.2810 N.am   28  CYS28      -0.1956
     92  CA        24.4630   33.5590    6.9240 C.3    28  CYS28       0.1843
     93  C         25.0870   32.6060    5.9270 C.2    28  CYS28       0.2626
     94  O         26.2110   32.1380    6.1210 O.2    28  CYS28      -0.2714
     95  CB        25.2210   34.8900    6.8510 C.3    28  CYS28       0.0997
     96  SG        24.5630   36.1990    7.9070 S.3    28  CYS28      -0.0797
     97  N         24.3450   32.3140    4.8620 N.am   29  GLY29      -0.1954
     98  CA        24.8360   31.5290    3.7640 C.3    29  GLY29       0.1869
     99  C         24.6280   30.0470    3.9190 C.2    29  GLY29       0.2309
    100  O         23.5500   29.6230    4.3290 O.2    29  GLY29      -0.2863
    101  N         20.2880   36.7640    9.5250 N.3    44  CYS44      -0.1235
    102  CA        20.2870   35.5060    8.7700 C.3    44  CYS44       0.1677
    103  C         19.6080   34.3680    9.5190 C.2    44  CYS44       0.2270
    104  O         19.0820   33.4440    8.9010 O.2    44  CYS44      -0.2867
    105  CB        21.7060   35.1110    8.3950 C.3    44  CYS44       0.0956
    106  SG        22.5940   36.3620    7.4430 S.3    44  CYS44      -0.0801
    107  N         16.0290   35.0170    8.8870 N.3    47  HIS47      -0.1226
    108  CA        15.7830   34.7170    7.4820 C.3    47  HIS47       0.1752
    109  C         15.5280   33.2480    7.2280 C.2    47  HIS47       0.2595
    110  O         14.6180   32.8890    6.4850 O.2    47  HIS47      -0.2718
    111  CB        16.9680   35.1810    6.6280 C.3    47  HIS47       0.0759
    112  CG        16.7860   34.9480    5.1500 C.ar   47  HIS47       0.0818
    113  ND1       17.5740   34.0500    4.4380 N.ar   47  HIS47      -0.2268
    114  CD2       15.9110   35.4990    4.2770 C.ar   47  HIS47       0.1154
    115  CE1       17.1620   34.0820    3.1810 C.ar   47  HIS47       0.1986
    116  NE2       16.1630   34.9410    3.0400 N.ar   47  HIS47      -0.2212
    117  N         16.3360   32.3970    7.8540 N.am   48  LYS48      -0.1980
    118  CA        16.2250   30.9490    7.6700 C.3    48  LYS48       0.1596
    119  C         14.9770   30.4090    8.3680 C.2    48  LYS48       0.2287
    120  O         14.3450   29.4880    7.8670 O.2    48  LYS48      -0.2864
    121  CB        17.5050   30.2490    8.1410 C.3    48  LYS48       0.0298
    122  CG        18.5410   30.1530    7.0330 C.3    48  LYS48       0.0038
    123  CD        19.9000   29.7150    7.5360 C.3    48  LYS48       0.0206
    124  CE        20.9090   29.7220    6.4050 C.3    48  LYS48       0.1093
    125  NZ        22.2440   29.2610    6.8550 N.3    48  LYS48      -0.1314
    126  N         15.6140   40.2750    4.9890 N.3    92  VAL92      -0.1245
    127  CA        17.0270   40.0420    5.3350 C.3    92  VAL92       0.1561
    128  C         17.9400   41.0420    4.6380 C.2    92  VAL92       0.2260
    129  O         18.9260   41.4480    5.2210 O.2    92  VAL92      -0.2867
    130  CB        17.4590   38.5740    5.0740 C.3    92  VAL92       0.0252
    131  CG1       17.6750   38.2560    3.5820 C.3    92  VAL92       0.0019
    132  CG2       18.7330   38.2430    5.8590 C.3    92  VAL92       0.0019
    133  N         20.2760   43.3960    6.9610 N.3    96  LEU96      -0.1245
    134  CA        21.7290   43.3670    6.8040 C.3    96  LEU96       0.1561
    135  C         22.2780   44.7610    6.5150 C.2    96  LEU96       0.2260
    136  O         23.3540   45.1230    6.9890 O.2    96  LEU96      -0.2867
    137  CB        22.1290   42.4100    5.6760 C.3    96  LEU96       0.0270
    138  CG        21.7990   40.9260    5.8680 C.3    96  LEU96       0.0019
    139  CD1       21.9770   40.1830    4.5540 C.3    96  LEU96       0.0001
    140  CD2       22.6680   40.2920    6.9480 C.3    96  LEU96       0.0001
@<TRIPOS>BOND
     1    37    36    1
     2    15    14    1
     3    36    35    1
     4    14    16    1
     5    14    13    1
     6    35    34    1
     7    13    10    1
     8    34    33    1
     9    10    11    1
    10    10     9    1
    11    33    30    1
    12    11    12    2
    13     9     3   am
    14    30    29    1
    15    30    31    1
    16    53    51   am
    17     3     4    2
    18     3     2    1
    19    29    27   am
    20    31    32    2
    21     1     2    1
    22    66    64    1
    23     5     2    1
    24     5     6    1
    25    27    28    2
    26    27    26    1
    27    51    52    2
    28    51    50    1
    29    17    18    1
    30    26    25    1
    31     7     6    1
    32    25    19   am
    33    50    47    1
    34     6     8    1
    35    64    63    1
    36    47    46    1
    37    47    48    1
    38    63    65    1
    39    63    60    1
    40    19    18    1
    41    19    20    2
    42    18    21    1
    43    54    48   am
    44    54    55    1
    45    21    22    1
    46    48    49    2
    47    59    60    1
    48    59    56   am
    49    38    39    1
    50    58    55    1
    51    60    61    1
    52    40    39    1
    53    40    41    2
    54    55    56    1
    55    56    57    2
    56    61    62    2
    57    39    42    1
    58    22    24    1
    59    22    23    1
    60    42    44    1
    61    42    43    1
    62    43    45    1
    63    80    79    1
    64    80    81    1
    65    79    69   am
    66    67    68    1
    67    74    76   ar
    68    74    72   ar
    69    82    81    2
    70   116   115   ar
    71   116   114   ar
    72    76    77   ar
    73   115   113   ar
    74    69    68    1
    75    69    70    2
    76    71    68    1
    77    71    72    1
    78   131   130    1
    79    72    73   ar
    80    98    99    1
    81    98    97    1
    82    99   100    2
    83   114   112   ar
    84   113   112   ar
    85    77    78    1
    86    77    75   ar
    87   139   138    1
    88   128   129    2
    89   128   127    1
    90    97    93   am
    91   126   127    1
    92   130   127    1
    93   130   132    1
    94    73    75   ar
    95   112   111    1
    96   137   138    1
    97   137   134    1
    98   138   140    1
    99    93    94    2
   100    93    92    1
   101   124   125    1
   102   124   123    1
   103   110   109    2
   104   135   134    1
   105   135   136    2
   106   111   108    1
   107   134   133    1
   108    95    92    1
   109    95    96    1
   110    92    91    1
   111   122   123    1
   112   122   121    1
   113   109   108    1
   114   109   117   am
   115   106    96    1
   116   106   105    1
   117   108   107    1
   118   118   117    1
   119   118   121    1
   120   118   119    1
   121   120   119    2
   122    86    85    2
   123    91    85   am
   124   105   102    1
   125    85    84    1
   126   102   103    1
   127   102   101    1
   128   104   103    2
   129    84    83    1
   130    84    87    1
   131    87    88    1
   132    88    89    2
   133    88    90   am
