@<TRIPOS>MOLECULE
tmp/1s8lA02.pdb
 73 68 0 0 0
SMALL
GASTEIGER

@<TRIPOS>ATOM
      1  N         -2.7020   30.4460   36.2470 N.3   171  ALA171     -0.1245
      2  CA        -3.0620   31.6650   36.9740 C.3   171  ALA171      0.1562
      3  C         -2.0970   32.8390   36.7810 C.2   171  ALA171      0.2260
      4  O         -2.5050   33.9960   36.8830 O.2   171  ALA171     -0.2867
      5  CB        -3.2260   31.3640   38.4610 C.3   171  ALA171      0.0290
      6  N         -2.9130   35.3130   33.9130 N.3   174  VAL174     -0.1231
      7  CA        -4.1400   36.0150   34.3130 C.3   174  VAL174      0.1692
      8  C         -3.8340   37.1640   35.2840 C.2   174  VAL174      0.2591
      9  O         -4.3090   38.2860   35.1050 O.2   174  VAL174     -0.2718
     10  CB        -5.1530   35.0290   34.9610 C.3   174  VAL174      0.0266
     11  CG1       -6.3850   35.7730   35.4430 C.3   174  VAL174      0.0020
     12  CG2       -5.5350   33.9420   33.9530 C.3   174  VAL174      0.0020
     13  N         -3.0430   36.8690   36.3120 N.am  175  VAL175     -0.1980
     14  CA        -2.6360   37.8580   37.3090 C.3   175  VAL175      0.1595
     15  C         -1.7880   38.9610   36.6590 C.2   175  VAL175      0.2287
     16  O         -1.8940   40.1330   37.0220 O.2   175  VAL175     -0.2864
     17  CB        -1.8270   37.1770   38.4480 C.3   175  VAL175      0.0276
     18  CG1       -1.2270   38.2150   39.3930 C.3   175  VAL175      0.0022
     19  CG2       -2.7370   36.2220   39.2330 C.3   175  VAL175      0.0022
     20  N         -4.1230   41.3300   34.5160 N.3   178  ILE178     -0.1245
     21  CA        -4.9330   42.2330   35.3240 C.3   178  ILE178      0.1561
     22  C         -4.0500   43.0860   36.2410 C.2   178  ILE178      0.2260
     23  O         -4.5220   44.0440   36.8470 O.2   178  ILE178     -0.2867
     24  CB        -6.0190   41.4810   36.1520 C.3   178  ILE178      0.0252
     25  CG1       -5.3770   40.6220   37.2470 C.3   178  ILE178      0.0019
     26  CG2       -6.8940   40.6230   35.2260 C.3   178  ILE178      0.0019
     27  CD1       -6.3820   39.8380   38.0730 C.3   178  ILE178      0.0001
     28  N         -5.4250   46.8250   36.5560 N.3   185  ILE185     -0.1231
     29  CA        -6.7350   46.7450   37.1960 C.3   185  ILE185      0.1692
     30  C         -6.5930   46.4720   38.6940 C.2   185  ILE185      0.2592
     31  O         -7.2560   47.0910   39.5280 O.2   185  ILE185     -0.2718
     32  CB        -7.5610   45.6170   36.5460 C.3   185  ILE185      0.0266
     33  CG1       -7.9160   46.0150   35.1150 C.3   185  ILE185      0.0019
     34  CG2       -8.8060   45.2820   37.3870 C.3   185  ILE185      0.0020
     35  CD1       -8.4420   44.8900   34.2870 C.3   185  ILE185      0.0001
     36  N         -5.7290   45.5230   39.0190 N.am  186  VAL186     -0.1966
     37  CA        -5.4740   45.1410   40.4000 C.3   186  VAL186      0.1712
     38  C         -4.2570   45.9100   40.9210 C.2   186  VAL186      0.2458
     39  O         -3.2530   46.0300   40.2200 O.2   186  VAL186     -0.2730
     40  CB        -5.2270   43.6150   40.4750 C.3   186  VAL186      0.0289
     41  CG1       -4.6230   43.2260   41.7960 C.3   186  VAL186      0.0023
     42  CG2       -6.5420   42.8720   40.2480 C.3   186  VAL186      0.0023
     43  N         -4.3510   46.4790   42.1390 N.am  187  PRO187     -0.2727
     44  CA        -3.2390   47.2360   42.7320 C.3   187  PRO187      0.1402
     45  C         -1.9810   46.3740   42.8730 C.2   187  PRO187      0.2269
     46  O         -2.0590   45.1410   42.9050 O.2   187  PRO187     -0.2865
     47  CB        -3.7910   47.6340   44.1060 C.3   187  PRO187      0.0296
     48  CG        -5.2670   47.7340   43.8630 C.3   187  PRO187      0.0237
     49  CD        -5.5360   46.5160   43.0150 C.3   187  PRO187      0.0939
     50  N         -1.7700   43.8660   45.9170 N.3   190  ILE190     -0.1245
     51  CA        -2.6570   42.7160   45.7740 C.3   190  ILE190      0.1561
     52  C         -1.9990   41.7290   44.8060 C.2   190  ILE190      0.2260
     53  O         -2.0170   40.5180   45.0290 O.2   190  ILE190     -0.2867
     54  CB        -4.0500   43.1280   45.2410 C.3   190  ILE190      0.0252
     55  CG1       -4.7850   43.9950   46.2730 C.3   190  ILE190      0.0019
     56  CG2       -4.8790   41.8910   44.9120 C.3   190  ILE190      0.0019
     57  CD1       -5.1880   43.2550   47.5420 C.3   190  ILE190      0.0001
     58  N          0.6990   39.8450   46.3460 N.3   193  LEU193     -0.1231
     59  CA         0.0980   38.8080   47.1810 C.3   193  LEU193      0.1693
     60  C         -0.2260   37.5570   46.3540 C.2   193  LEU193      0.2591
     61  O          0.1100   36.4410   46.7470 O.2   193  LEU193     -0.2718
     62  CB        -1.1840   39.3420   47.8350 C.3   193  LEU193      0.0284
     63  CG        -2.1520   38.3340   48.4740 C.3   193  LEU193      0.0019
     64  CD1       -1.4480   37.5120   49.5540 C.3   193  LEU193      0.0001
     65  CD2       -3.3410   39.0850   49.0670 C.3   193  LEU193      0.0001
     66  N         -0.8680   37.7590   45.2050 N.am  194  LEU194     -0.1980
     67  CA        -1.2540   36.6560   44.3250 C.3   194  LEU194      0.1596
     68  C         -0.0530   35.8490   43.8290 C.2   194  LEU194      0.2287
     69  O         -0.0700   34.6130   43.8880 O.2   194  LEU194     -0.2864
     70  CB        -2.0770   37.1820   43.1440 C.3   194  LEU194      0.0297
     71  CG        -3.3430   37.9600   43.5380 C.3   194  LEU194      0.0022
     72  CD1       -4.0320   38.5300   42.3120 C.3   194  LEU194      0.0001
     73  CD2       -4.2940   37.0520   44.3250 C.3   194  LEU194      0.0001
@<TRIPOS>BOND
     1     6     7    1
     2    12    10    1
     3    35    33    1
     4     7    10    1
     5     7     8    1
     6    20    21    1
     7    10    11    1
     8     9     8    2
     9    33    32    1
    10    26    24    1
    11     8    13   am
    12    21    24    1
    13    21    22    1
    14    24    25    1
    15    22    23    2
    16     1     2    1
    17    13    14    1
    18    32    29    1
    19    32    34    1
    20    28    29    1
    21    15    16    2
    22    15    14    1
    23     3     4    2
    24     3     2    1
    25     2     5    1
    26    29    30    1
    27    25    27    1
    28    14    17    1
    29    17    19    1
    30    17    18    1
    31    30    36   am
    32    30    31    2
    33    36    37    1
    34    39    38    2
    35    42    40    1
    36    37    40    1
    37    37    38    1
    38    40    41    1
    39    38    43   am
    40    43    44    1
    41    43    49    1
    42    72    71    1
    43    44    45    1
    44    44    47    1
    45    45    46    2
    46    49    48    1
    47    70    71    1
    48    70    67    1
    49    71    73    1
    50    68    69    2
    51    68    67    1
    52    48    47    1
    53    67    66    1
    54    52    53    2
    55    52    51    1
    56    56    54    1
    57    66    60   am
    58    54    51    1
    59    54    55    1
    60    51    50    1
    61    55    57    1
    62    58    59    1
    63    60    61    2
    64    60    59    1
    65    59    62    1
    66    62    63    1
    67    63    65    1
    68    63    64    1
