@<TRIPOS>MOLECULE
tmp/1s9aB03.pdb
 128 123 0 0 0
SMALL
GASTEIGER

@<TRIPOS>ATOM
      1  N         32.9040   50.4780  270.8880 N.3    48  LEU48      -0.1245
      2  CA        32.5180   51.0900  269.6210 C.3    48  LEU48       0.1561
      3  C         32.4160   52.6100  269.7490 C.2    48  LEU48       0.2260
      4  O         32.8470   53.3490  268.8460 O.2    48  LEU48      -0.2867
      5  CB        31.2090   50.4990  269.1050 C.3    48  LEU48       0.0270
      6  CG        30.5750   51.2040  267.9050 C.3    48  LEU48       0.0019
      7  CD1       31.1550   50.6780  266.5950 C.3    48  LEU48       0.0001
      8  CD2       29.0600   51.0630  267.9320 C.3    48  LEU48       0.0001
      9  N         35.9640   54.2060  270.5240 N.3    51  ASP51      -0.1225
     10  CA        36.8320   54.1190  269.3580 C.3    51  ASP51       0.1805
     11  C         36.3660   55.1000  268.3260 C.2    51  ASP51       0.2597
     12  O         37.1810   55.6690  267.6060 O.2    51  ASP51      -0.2718
     13  CB        36.8500   52.7220  268.7440 C.3    51  ASP51       0.1424
     14  CG        37.6470   51.7230  269.5680 C.2    51  ASP51       0.3668
     15  OD1       38.1710   52.0700  270.6650 O.co2  51  ASP51      -0.2456
     16  OD2       37.7860   50.5320  269.1990 O.co2  51  ASP51      -0.2456
     17  N         35.0510   55.2980  268.2500 N.am   52  ALA52      -0.1979
     18  CA        34.4830   56.2410  267.2920 C.3    52  ALA52       0.1597
     19  C         34.9180   57.6760  267.5800 C.2    52  ALA52       0.2287
     20  O         35.2330   58.4400  266.6600 O.2    52  ALA52      -0.2864
     21  CB        32.9690   56.1280  267.2580 C.3    52  ALA52       0.0319
     22  N         43.7950   54.2930  263.6600 N.3    73  ILE73      -0.1231
     23  CA        42.9900   53.6670  264.6990 C.3    73  ILE73       0.1692
     24  C         42.7090   52.2030  264.3760 C.2    73  ILE73       0.2592
     25  O         42.5230   51.8420  263.2130 O.2    73  ILE73      -0.2718
     26  CB        41.6770   54.5040  264.9820 C.3    73  ILE73       0.0266
     27  CG1       40.4910   54.0550  264.1170 C.3    73  ILE73       0.0019
     28  CG2       41.9400   56.0070  264.8310 C.3    73  ILE73       0.0020
     29  CD1       39.1520   54.4010  264.7070 C.3    73  ILE73       0.0001
     30  N         42.7050   51.3610  265.4020 N.am   74  GLN74      -0.1966
     31  CA        42.4040   49.9520  265.2100 C.3    74  GLN74       0.1733
     32  C         40.9220   49.6630  265.0470 C.2    74  GLN74       0.2617
     33  O         40.5360   48.8000  264.2730 O.2    74  GLN74      -0.2715
     34  CB        42.9350   49.1220  266.3590 C.3    74  GLN74       0.0408
     35  CG        42.7000   47.6460  266.1450 C.3    74  GLN74       0.0908
     36  CD        43.4030   46.8030  267.1620 C.2    74  GLN74       0.2608
     37  OE1       42.7620   46.1380  267.9680 O.2    74  GLN74      -0.2717
     38  NE2       44.7300   46.8200  267.1310 N.am   74  GLN74      -0.0878
     39  N         40.0890   50.3660  265.8020 N.am   75  GLY75      -0.1941
     40  CA        38.6760   50.0330  265.8560 C.3    75  GLY75       0.1998
     41  C         38.4160   48.8230  266.7320 C.2    75  GLY75       0.2481
     42  O         39.3530   48.2350  267.2780 O.2    75  GLY75      -0.2729
     43  N         37.1470   48.4680  266.8920 N.am   76  PRO76      -0.2715
     44  CA        36.7520   47.3800  267.7900 C.3    76  PRO76       0.1536
     45  C         36.5740   46.0260  267.1020 C.2    76  PRO76       0.2598
     46  O         35.9670   45.1160  267.6900 O.2    76  PRO76      -0.2715
     47  CB        35.3990   47.8700  268.3190 C.3    76  PRO76       0.0310
     48  CG        34.8430   48.7310  267.2060 C.3    76  PRO76       0.0237
     49  CD        35.9760   49.1090  266.2740 C.3    76  PRO76       0.0939
     50  N         37.0820   45.8780  265.8850 N.am   77  PHE77      -0.1974
     51  CA        36.7250   44.6870  265.1160 C.3    77  PHE77       0.1639
     52  C         37.8580   43.7320  264.7640 C.2    77  PHE77       0.2290
     53  O         37.6670   42.8300  263.9600 O.2    77  PHE77      -0.2864
     54  CB        35.9200   45.0730  263.8770 C.3    77  PHE77       0.0560
     55  CG        34.5990   45.7070  264.1990 C.ar   77  PHE77      -0.0200
     56  CD1       33.8460   45.2670  265.2870 C.ar   77  PHE77      -0.0042
     57  CD2       34.1050   46.7560  263.4230 C.ar   77  PHE77      -0.0042
     58  CE1       32.6250   45.8530  265.5870 C.ar   77  PHE77      -0.0003
     59  CE2       32.8750   47.3480  263.7140 C.ar   77  PHE77      -0.0003
     60  CZ        32.1340   46.8960  264.7930 C.ar   77  PHE77      -0.0000
     61  N         31.7190   42.6640  259.4660 N.3   133  TYR133     -0.1241
     62  CA        32.9400   41.9100  259.7200 C.3   133  TYR133      0.1605
     63  C         32.5830   40.5570  260.3090 C.2   133  TYR133      0.2264
     64  O         31.7710   40.4890  261.2380 O.2   133  TYR133     -0.2867
     65  CB        33.8210   42.6320  260.7340 C.3   133  TYR133      0.0534
     66  CG        34.4640   43.9130  260.2600 C.ar  133  TYR133     -0.0201
     67  CD1       35.7760   43.9240  259.7900 C.ar  133  TYR133     -0.0009
     68  CD2       33.7690   45.1260  260.3240 C.ar  133  TYR133     -0.0009
     69  CE1       36.3710   45.1080  259.3870 C.ar  133  TYR133      0.0417
     70  CE2       34.3570   46.3050  259.9150 C.ar  133  TYR133      0.0417
     71  CZ        35.6500   46.2880  259.4530 C.ar  133  TYR133      0.1957
     72  OH        36.2080   47.4530  259.0560 O.3   133  TYR133     -0.2866
     73  N         30.8360   51.3730  255.2020 N.3   168  TYR168     -0.1241
     74  CA        29.7810   50.7640  256.0080 C.3   168  TYR168      0.1605
     75  C         29.2400   51.7240  257.0440 C.2   168  TYR168      0.2264
     76  O         29.8610   52.7390  257.3600 O.2   168  TYR168     -0.2867
     77  CB        30.2280   49.4480  256.6680 C.3   168  TYR168      0.0534
     78  CG        31.4820   49.5220  257.5180 C.ar  168  TYR168     -0.0201
     79  CD1       31.4610   50.0970  258.8010 C.ar  168  TYR168     -0.0009
     80  CD2       32.6860   48.9890  257.0530 C.ar  168  TYR168     -0.0009
     81  CE1       32.6170   50.1580  259.5840 C.ar  168  TYR168      0.0417
     82  CE2       33.8430   49.0410  257.8210 C.ar  168  TYR168      0.0417
     83  CZ        33.8070   49.6270  259.0860 C.ar  168  TYR168      0.1957
     84  OH        34.9570   49.6760  259.8480 O.3   168  TYR168     -0.2866
     85  N         27.7790   52.4240  260.8970 N.3   170  ILE170     -0.1245
     86  CA        27.6430   52.0430  262.2980 C.3   170  ILE170      0.1561
     87  C         26.1360   52.1240  262.6110 C.2   170  ILE170      0.2260
     88  O         25.5100   53.1660  262.3630 O.2   170  ILE170     -0.2867
     89  CB        28.4960   52.9610  263.2120 C.3   170  ILE170      0.0252
     90  CG1       29.9810   52.8390  262.8660 C.3   170  ILE170      0.0019
     91  CG2       28.3360   52.5750  264.6660 C.3   170  ILE170      0.0019
     92  CD1       30.7560   54.1320  263.0330 C.3   170  ILE170      0.0001
     93  N         31.3480   55.0160  257.8920 N.3   190  ARG190     -0.1245
     94  CA        32.8030   55.0580  257.7630 C.3   190  ARG190      0.1563
     95  C         33.1280   54.9590  256.2770 C.2   190  ARG190      0.2260
     96  O         32.3750   54.3290  255.5390 O.2   190  ARG190     -0.2867
     97  CB        33.4480   53.8800  258.5010 C.3   190  ARG190      0.0307
     98  CG        33.4880   54.0030  260.0300 C.3   190  ARG190      0.0489
     99  CD        34.8720   53.7540  260.6210 C.3   190  ARG190      0.2205
    100  NE        35.8720   54.5470  259.9160 N.pl3 190  ARG190     -0.0865
    101  CZ        37.1600   54.2470  259.8270 C.cat 190  ARG190      0.5346
    102  NH1       37.6460   53.1650  260.4170 N.pl3 190  ARG190      0.1354
    103  NH2       37.9710   55.0420  259.1490 N.pl3 190  ARG190      0.1354
    104  N         41.9280   47.1040  257.0240 N.3   195  HIS195     -0.1241
    105  CA        42.6980   47.1720  258.2600 C.3   195  HIS195      0.1621
    106  C         43.9820   46.3760  258.1130 C.2   195  HIS195      0.2264
    107  O         44.0120   45.3380  257.4490 O.2   195  HIS195     -0.2867
    108  CB        41.9130   46.6150  259.4520 C.3   195  HIS195      0.0745
    109  CG        40.6590   47.3650  259.7720 C.ar  195  HIS195      0.0817
    110  ND1       40.6670   48.5890  260.4060 N.ar  195  HIS195     -0.2268
    111  CD2       39.3570   47.0670  259.5420 C.ar  195  HIS195      0.1154
    112  CE1       39.4250   49.0170  260.5430 C.ar  195  HIS195      0.1986
    113  NE2       38.6110   48.1120  260.0300 N.ar  195  HIS195     -0.2212
    114  N         45.2370   51.6890  258.4160 N.3   209  GLN209     -0.1245
    115  CA        44.0960   51.5270  257.5360 C.3   209  GLN209      0.1566
    116  C         44.4090   52.0890  256.1600 C.2   209  GLN209      0.2260
    117  O         45.1780   53.0320  256.0080 O.2   209  GLN209     -0.2867
    118  CB        42.9020   52.2680  258.1030 C.3   209  GLN209      0.0367
    119  CG        42.1640   51.5080  259.1840 C.3   209  GLN209      0.0905
    120  CD        40.9400   52.2390  259.6970 C.2   209  GLN209      0.2608
    121  OE1       40.1190   52.7500  258.7860 O.2   209  GLN209     -0.2717
    122  NE2       40.7340   52.3210  260.9070 N.am  209  GLN209     -0.0878
    123  N         34.2150   58.5940  262.3350 N.3   223  CYS223     -0.1235
    124  CA        35.2120   58.3160  263.3710 C.3   223  CYS223      0.1677
    125  C         36.4960   59.1530  263.2520 C.2   223  CYS223      0.2270
    126  O         37.4560   58.9370  263.9890 O.2   223  CYS223     -0.2867
    127  CB        35.5290   56.8190  263.4230 C.3   223  CYS223      0.0956
    128  SG        34.0620   55.7620  263.4800 S.3   223  CYS223     -0.0801
@<TRIPOS>BOND
     1    73    74    1
     2    96    95    2
     3    74    77    1
     4    74    75    1
     5   117   116    2
     6   116   115    1
     7    95    94    1
     8    77    78    1
     9   104   105    1
    10    75    76    2
    11    80    78   ar
    12    80    82   ar
    13   107   106    2
    14    78    79   ar
    15   115   118    1
    16   115   114    1
    17    94    93    1
    18    94    97    1
    19    82    83   ar
    20   118   119    1
    21   106   105    1
    22   105   108    1
    23    97    98    1
    24   121   120    2
    25    79    81   ar
    26    72    71    1
    27    83    81   ar
    28    83    84    1
    29   103   101    1
    30   119   120    1
    31    69    71   ar
    32    69    67   ar
    33   108   109    1
    34    71    70   ar
    35    61    62    1
    36   111   109   ar
    37   111   113   ar
    38   120   122   am
    39    62    63    1
    40    62    65    1
    41   109   110   ar
    42    67    66   ar
    43   101   100    2
    44   101   102    1
    45    70    68   ar
    46   100    99    1
    47    98    99    1
    48   113   112   ar
    49    66    68   ar
    50    66    65    1
    51    63    64    2
    52   110   112   ar
    53    85    86    1
    54    86    87    1
    55    86    89    1
    56   123   124    1
    57    88    87    2
    58    90    92    1
    59    90    89    1
    60    89    91    1
    61    25    24    2
    62   125   124    1
    63   125   126    2
    64   124   127    1
    65    57    59   ar
    66    57    55   ar
    67   127   128    1
    68    22    23    1
    69    59    60   ar
    70    54    55    1
    71    54    51    1
    72    53    52    2
    73    27    29    1
    74    27    26    1
    75    55    56   ar
    76    33    32    2
    77    24    23    1
    78    24    30   am
    79    23    26    1
    80    52    51    1
    81    60    58   ar
    82    28    26    1
    83    32    31    1
    84    32    39   am
    85    51    50    1
    86    31    30    1
    87    31    34    1
    88    56    58   ar
    89    39    40    1
    90    40    41    1
    91    50    45   am
    92    35    34    1
    93    35    36    1
    94    49    43    1
    95    49    48    1
    96     7     6    1
    97    20    19    2
    98    41    43   am
    99    41    42    2
   100    43    44    1
   101    45    46    2
   102    45    44    1
   103    38    36   am
   104    36    37    2
   105    48    47    1
   106    21    18    1
   107    18    19    1
   108    18    17    1
   109    12    11    2
   110    44    47    1
   111     6     8    1
   112     6     5    1
   113    17    11   am
   114    11    10    1
   115    13    10    1
   116    13    14    1
   117     4     3    2
   118     5     2    1
   119    16    14   ar
   120    10     9    1
   121    14    15   ar
   122     2     3    1
   123     2     1    1
