@<TRIPOS>MOLECULE
tmp/1s9eA00.pdb
 155 153 0 0 0
SMALL
GASTEIGER

@<TRIPOS>ATOM
      1  N        140.9120  -15.8800   76.7320 N.3    95  PRO95      -0.2116
      2  CA       140.1190  -16.6850   75.8050 C.3    95  PRO95       0.1372
      3  C        139.3150  -17.7340   76.5120 C.2    95  PRO95       0.2244
      4  O        139.7920  -18.3520   77.4730 O.2    95  PRO95      -0.2868
      5  CB       141.1670  -17.2900   74.8800 C.3    95  PRO95       0.0268
      6  CG       142.2790  -17.4480   75.7460 C.3    95  PRO95       0.0207
      7  CD       142.3330  -16.1350   76.4970 C.3    95  PRO95       0.0892
      8  N        135.3250  -21.9110   73.1020 N.3    99  GLY99      -0.1210
      9  CA       135.6520  -21.5060   71.7460 C.3    99  GLY99       0.1956
     10  C        136.9960  -21.9890   71.2280 C.2    99  GLY99       0.2612
     11  O        137.3430  -21.7100   70.0860 O.2    99  GLY99      -0.2717
     12  N        137.7800  -22.6850   72.0490 N.am  100  LEU100     -0.1965
     13  CA       139.0430  -23.2210   71.5750 C.3   100  LEU100      0.1728
     14  C        138.7050  -24.3910   70.6660 C.2   100  LEU100      0.2616
     15  O        137.5640  -24.8710   70.6560 O.2   100  LEU100     -0.2715
     16  CB       139.8840  -23.7110   72.7380 C.3   100  LEU100      0.0311
     17  CG       140.5170  -22.5990   73.5770 C.3   100  LEU100      0.0022
     18  CD1      141.3460  -23.1930   74.6990 C.3   100  LEU100      0.0001
     19  CD2      141.4050  -21.7600   72.7130 C.3   100  LEU100      0.0001
     20  N        139.6880  -24.8570   69.9020 N.am  101  LYS101     -0.1977
     21  CA       139.4620  -25.9790   68.9950 C.3   101  LYS101      0.1596
     22  C        140.1730  -27.2730   69.3460 C.2   101  LYS101      0.2287
     23  O        141.3220  -27.2800   69.7980 O.2   101  LYS101     -0.2864
     24  CB       139.8420  -25.6180   67.5710 C.3   101  LYS101      0.0298
     25  CG       140.0070  -26.8460   66.6860 C.3   101  LYS101      0.0038
     26  CD       140.4470  -26.4510   65.2890 C.3   101  LYS101      0.0206
     27  CE       140.3170  -27.6040   64.3190 C.3   101  LYS101      0.1093
     28  NZ       140.3800  -27.0730   62.9440 N.3   101  LYS101     -0.1314
     29  N        142.0470  -30.7530   69.6830 N.3   103  LYS103     -0.1245
     30  CA       143.4070  -31.1650   69.3440 C.3   103  LYS103      0.1561
     31  C        143.7660  -32.5930   69.8240 C.2   103  LYS103      0.2260
     32  O        143.1530  -33.1370   70.7490 O.2   103  LYS103     -0.2867
     33  CB       144.4130  -30.1640   69.9150 C.3   103  LYS103      0.0271
     34  CG       144.2660  -28.7300   69.3950 C.3   103  LYS103      0.0035
     35  CD       144.3660  -28.5960   67.8780 C.3   103  LYS103      0.0206
     36  CE       144.4020  -27.1160   67.4940 C.3   103  LYS103      0.1093
     37  NZ       144.2890  -26.8380   66.0250 N.3   103  LYS103     -0.1314
     38  N        148.7510  -32.0100   72.9920 N.3   106  VAL106     -0.1245
     39  CA       149.0180  -30.6860   73.4850 C.3   106  VAL106      0.1561
     40  C        150.2160  -30.7550   74.3860 C.2   106  VAL106      0.2260
     41  O        150.2960  -31.6330   75.2250 O.2   106  VAL106     -0.2867
     42  CB       147.8280  -30.1860   74.3040 C.3   106  VAL106      0.0252
     43  CG1      148.1490  -28.8400   74.9110 C.3   106  VAL106      0.0019
     44  CG2      146.5850  -30.1040   73.4530 C.3   106  VAL106      0.0019
     45  N        148.5870  -24.8450   67.2300 N.3   179  VAL179     -0.1245
     46  CA       148.1660  -23.7030   68.0160 C.3   179  VAL179      0.1561
     47  C        149.2380  -23.4630   69.0820 C.2   179  VAL179      0.2260
     48  O        149.6510  -24.3780   69.8240 O.2   179  VAL179     -0.2867
     49  CB       146.7500  -23.8810   68.7150 C.3   179  VAL179      0.0252
     50  CG1      145.6580  -23.8410   67.6940 C.3   179  VAL179      0.0019
     51  CG2      146.6710  -25.1620   69.4980 C.3   179  VAL179      0.0019
     52  N        149.8400  -21.0430   72.1670 N.3   181  TYR181     -0.1241
     53  CA       149.3770  -20.0250   73.0600 C.3   181  TYR181      0.1605
     54  C        150.3190  -19.9970   74.2630 C.2   181  TYR181      0.2264
     55  O        150.6180  -21.0340   74.8210 O.2   181  TYR181     -0.2867
     56  CB       147.9780  -20.3560   73.5040 C.3   181  TYR181      0.0534
     57  CG       147.4890  -19.4990   74.6340 C.ar  181  TYR181     -0.0201
     58  CD1      146.5270  -18.5320   74.4300 C.ar  181  TYR181     -0.0009
     59  CD2      147.9600  -19.6950   75.9230 C.ar  181  TYR181     -0.0009
     60  CE1      146.0410  -17.7900   75.5000 C.ar  181  TYR181      0.0417
     61  CE2      147.4820  -18.9630   76.9880 C.ar  181  TYR181      0.0417
     62  CZ       146.5260  -18.0270   76.7730 C.ar  181  TYR181      0.1957
     63  OH       146.0000  -17.3770   77.8550 O.3   181  TYR181     -0.2866
     64  N        152.0560  -23.1470   75.5040 N.3   188  TYR188     -0.1227
     65  CA       151.4360  -24.4080   75.1470 C.3   188  TYR188      0.1736
     66  C        151.5490  -24.6180   73.6470 C.2   188  TYR188      0.2595
     67  O        151.5720  -23.6560   72.8900 O.2   188  TYR188     -0.2718
     68  CB       149.9590  -24.3900   75.5630 C.3   188  TYR188      0.0548
     69  CG       149.6830  -24.2650   77.0720 C.ar  188  TYR188     -0.0200
     70  CD1      150.3120  -23.2840   77.8650 C.ar  188  TYR188     -0.0009
     71  CD2      148.7630  -25.1070   77.6870 C.ar  188  TYR188     -0.0009
     72  CE1      150.0170  -23.1500   79.2450 C.ar  188  TYR188      0.0417
     73  CE2      148.4590  -24.9890   79.0500 C.ar  188  TYR188      0.0417
     74  CZ       149.0830  -24.0080   79.8290 C.ar  188  TYR188      0.1957
     75  OH       148.7380  -23.8670   81.1750 O.3   188  TYR188     -0.2866
     76  N        151.6530  -25.8670   73.2150 N.am  189  VAL189     -0.1966
     77  CA       151.7140  -26.1540   71.7840 C.3   189  VAL189      0.1727
     78  C        150.7350  -27.3070   71.5590 C.2   189  VAL189      0.2616
     79  O        150.8210  -28.3080   72.2430 O.2   189  VAL189     -0.2715
     80  CB       153.1180  -26.5990   71.3810 C.3   189  VAL189      0.0290
     81  CG1      153.2150  -26.7000   69.8760 C.3   189  VAL189      0.0023
     82  CG2      154.1500  -25.6450   71.8990 C.3   189  VAL189      0.0023
     83  N        149.7680  -27.1580   70.6670 N.am  190  GLY190     -0.1955
     84  CA       148.8290  -28.2500   70.4800 C.3   190  GLY190      0.1869
     85  C        148.7680  -28.6150   69.0250 C.2   190  GLY190      0.2309
     86  O        148.9420  -27.7200   68.2130 O.2   190  GLY190     -0.2863
     87  N        147.9010  -33.2400   80.8470 N.3   225  PRO225     -0.2116
     88  CA       146.4450  -33.2420   81.0310 C.3   225  PRO225      0.1372
     89  C        145.8890  -34.1010   82.1470 C.2   225  PRO225      0.2244
     90  O        146.4030  -35.1870   82.4360 O.2   225  PRO225     -0.2868
     91  CB       145.9080  -33.6500   79.6550 C.3   225  PRO225      0.0268
     92  CG       146.9970  -34.4560   79.0770 C.3   225  PRO225      0.0207
     93  CD       148.2300  -33.6600   79.4720 C.3   225  PRO225      0.0892
     94  N        145.1020  -30.0550   82.0850 N.3   227  PHE227     -0.1241
     95  CA       145.9320  -28.8840   82.3580 C.3   227  PHE227      0.1605
     96  C        145.1560  -27.9410   83.2440 C.2   227  PHE227      0.2264
     97  O        144.0580  -27.5150   82.8830 O.2   227  PHE227     -0.2867
     98  CB       146.2910  -28.1630   81.0770 C.3   227  PHE227      0.0534
     99  CG       147.3600  -28.8360   80.3000 C.ar  227  PHE227     -0.0203
    100  CD1      148.6850  -28.7560   80.7140 C.ar  227  PHE227     -0.0042
    101  CD2      147.0450  -29.5890   79.1680 C.ar  227  PHE227     -0.0042
    102  CE1      149.6880  -29.4160   80.0130 C.ar  227  PHE227     -0.0003
    103  CE2      148.0360  -30.2540   78.4550 C.ar  227  PHE227     -0.0003
    104  CZ       149.3650  -30.1690   78.8800 C.ar  227  PHE227     -0.0000
    105  N        144.3780  -24.6750   84.2010 N.3   229  TRP229     -0.1241
    106  CA       144.6050  -23.3450   83.6130 C.3   229  TRP229      0.1605
    107  C        143.5180  -22.3300   83.8590 C.2   229  TRP229      0.2264
    108  O        142.3500  -22.6010   83.6190 O.2   229  TRP229     -0.2867
    109  CB       144.7750  -23.4730   82.1020 C.3   229  TRP229      0.0550
    110  CG       144.8590  -22.1520   81.3660 C.ar  229  TRP229      0.0003
    111  CD1      145.9340  -21.3120   81.3060 C.ar  229  TRP229      0.0946
    112  CD2      143.8480  -21.5620   80.5410 C.ar  229  TRP229      0.0152
    113  NE1      145.6590  -20.2430   80.4930 N.ar  229  TRP229     -0.2442
    114  CE2      144.3830  -20.3710   80.0110 C.ar  229  TRP229      0.0810
    115  CE3      142.5420  -21.9180   80.2080 C.ar  229  TRP229      0.0012
    116  CZ2      143.6620  -19.5420   79.1510 C.ar  229  TRP229      0.0191
    117  CZ3      141.8270  -21.0930   79.3600 C.ar  229  TRP229      0.0001
    118  CH2      142.3890  -19.9150   78.8420 C.ar  229  TRP229      0.0015
    119  N        141.6540  -28.3480   81.3990 N.3   234  LEU234     -0.1231
    120  CA       141.6890  -28.5860   79.9670 C.3   234  LEU234      0.1693
    121  C        142.0860  -29.9620   79.5110 C.2   234  LEU234      0.2592
    122  O        143.1200  -30.4920   79.9100 O.2   234  LEU234     -0.2718
    123  CB       142.6080  -27.5740   79.2950 C.3   234  LEU234      0.0284
    124  CG       141.9780  -26.1950   79.1070 C.3   234  LEU234      0.0019
    125  CD1      143.0540  -25.1270   78.9690 C.3   234  LEU234      0.0001
    126  CD2      141.0600  -26.2420   77.8940 C.3   234  LEU234      0.0001
    127  N        141.2520  -30.5090   78.6350 N.am  235  HIS235     -0.1962
    128  CA       141.4640  -31.8170   78.0500 C.3   235  HIS235      0.1772
    129  C        141.5220  -31.6850   76.5190 C.2   235  HIS235      0.2462
    130  O        140.9550  -30.7740   75.9430 O.2   235  HIS235     -0.2730
    131  CB       140.3170  -32.7480   78.4360 C.3   235  HIS235      0.0785
    132  CG       140.2410  -33.0810   79.9010 C.ar  235  HIS235      0.0821
    133  ND1      140.9700  -34.1030   80.4700 N.ar  235  HIS235     -0.2267
    134  CD2      139.4380  -32.6030   80.8830 C.ar  235  HIS235      0.1154
    135  CE1      140.6100  -34.2470   81.7320 C.ar  235  HIS235      0.1986
    136  NE2      139.6810  -33.3510   82.0090 N.ar  235  HIS235     -0.2212
    137  N        142.2210  -32.6060   75.8510 N.am  236  PRO236     -0.2727
    138  CA       142.4100  -32.6800   74.3980 C.3   236  PRO236      0.1402
    139  C        141.1380  -32.7670   73.5580 C.2   236  PRO236      0.2269
    140  O        141.1970  -32.8440   72.3300 O.2   236  PRO236     -0.2865
    141  CB       143.2800  -33.9230   74.2310 C.3   236  PRO236      0.0296
    142  CG       144.1300  -33.8750   75.4680 C.3   236  PRO236      0.0237
    143  CD       143.1060  -33.5670   76.5350 C.3   236  PRO236      0.0939
    144  N        134.3360  -28.7710   72.2620 N.3   318  TYR318     -0.1241
    145  CA       134.9450  -27.6450   71.5780 C.3   318  TYR318      0.1605
    146  C        134.1380  -27.1620   70.3880 C.2   318  TYR318      0.2264
    147  O        133.0420  -27.6750   70.0930 O.2   318  TYR318     -0.2867
    148  CB       136.3390  -28.0090   71.1240 C.3   318  TYR318      0.0534
    149  CG       137.2560  -28.1460   72.2940 C.ar  318  TYR318     -0.0201
    150  CD1      138.3780  -28.9370   72.2390 C.ar  318  TYR318     -0.0009
    151  CD2      136.9970  -27.4740   73.4520 C.ar  318  TYR318     -0.0009
    152  CE1      139.2150  -29.0470   73.3140 C.ar  318  TYR318      0.0417
    153  CE2      137.8320  -27.5800   74.5250 C.ar  318  TYR318      0.0417
    154  CZ       138.9330  -28.3620   74.4480 C.ar  318  TYR318      0.1957
    155  OH       139.7590  -28.4280   75.5330 O.3   318  TYR318     -0.2866
@<TRIPOS>BOND
     1    28    27    1
     2    27    26    1
     3    26    25    1
     4    37    36    1
     5    25    24    1
     6    45    46    1
     7    36    35    1
     8    24    21    1
     9    50    49    1
    10    35    34    1
    11    46    49    1
    12    46    47    1
    13    86    85    2
    14    49    51    1
    15    21    22    1
    16    21    20    1
    17    85    84    1
    18    47    48    2
    19    30    29    1
    20    30    31    1
    21    30    33    1
    22    22    23    2
    23    34    33    1
    24    31    32    2
    25    81    80    1
    26    20    14   am
    27    11    10    2
    28   147   146    2
    29   146   145    1
    30    84    83    1
    31    15    14    2
    32    14    13    1
    33    83    78   am
    34   148   145    1
    35   148   149    1
    36    10     9    1
    37    10    12   am
    38    80    77    1
    39    80    82    1
    40    78    77    1
    41    78    79    2
    42    13    12    1
    43    13    16    1
    44   145   144    1
    45     9     8    1
    46    77    76    1
    47    52    53    1
    48   150   149   ar
    49   150   152   ar
    50   149   151   ar
    51   140   139    2
    52    19    17    1
    53    16    17    1
    54    67    66    2
    55    38    39    1
    56    53    56    1
    57    53    54    1
    58    76    66   am
    59   152   154   ar
    60   151   153   ar
    61    44    42    1
    62    39    42    1
    63    39    40    1
    64    56    57    1
    65   139   138    1
    66    17    18    1
    67    66    65    1
    68   141   138    1
    69   141   142    1
    70    54    55    2
    71    42    43    1
    72    40    41    2
    73   138   137    1
    74    58    57   ar
    75    58    60   ar
    76   154   153   ar
    77   154   155    1
    78    57    59   ar
    79     5     6    1
    80     5     2    1
    81    65    64    1
    82    65    68    1
    83   142   143    1
    84    60    62   ar
    85    68    69    1
    86     6     7    1
    87     2     3    1
    88     2     1    1
    89   137   129   am
    90   137   143    1
    91    59    61   ar
    92   130   129    2
    93     7     1    1
    94     3     4    2
    95   129   128    1
    96    62    61   ar
    97    62    63    1
    98    69    71   ar
    99    69    70   ar
   100    71    73   ar
   101    70    72   ar
   102   126   124    1
   103   128   131    1
   104   128   127    1
   105   131   132    1
   106   103   104   ar
   107   103   101   ar
   108   127   121   am
   109   118   116   ar
   110   118   117   ar
   111   104   102   ar
   112   125   124    1
   113    73    74   ar
   114    92    93    1
   115    92    91    1
   116   124   123    1
   117   116   114   ar
   118   101    99   ar
   119    72    74   ar
   120   123   120    1
   121   117   115   ar
   122    93    87    1
   123   121   122    2
   124   121   120    1
   125    91    88    1
   126    74    75    1
   127   132   133   ar
   128   132   134   ar
   129   120   119    1
   130   114   113   ar
   131   114   112   ar
   132   102   100   ar
   133   115   112   ar
   134    99   100   ar
   135    99    98    1
   136   133   135   ar
   137   113   111   ar
   138   112   110   ar
   139    87    88    1
   140   134   136   ar
   141    88    89    1
   142    98    95    1
   143   111   110   ar
   144   110   109    1
   145   135   136   ar
   146    94    95    1
   147   109   106    1
   148    89    90    2
   149    95    96    1
   150    97    96    2
   151   106   107    1
   152   106   105    1
   153   108   107    2
