@<TRIPOS>MOLECULE
tmp/1s9fI00.pdb
 146 143 0 0 0
SMALL
GASTEIGER

@<TRIPOS>ATOM
      1  N         16.7920   12.7460    9.0650 N.3     7  ASP7       -0.1225
      2  CA        16.9980   13.0270    7.6500 C.3     7  ASP7        0.1805
      3  C         17.8650   11.9160    7.0380 C.2     7  ASP7        0.2598
      4  O         19.0580   11.8380    7.3120 O.2     7  ASP7       -0.2718
      5  CB        17.6620   14.4120    7.5650 C.3     7  ASP7        0.1424
      6  CG        18.0650   14.7960    6.1620 C.2     7  ASP7        0.3668
      7  OD1       17.9970   15.9980    5.8270 O.co2   7  ASP7       -0.2456
      8  OD2       18.4720   13.9050    5.4100 O.co2   7  ASP7       -0.2456
      9  N         17.2600   11.0500    6.2230 N.am    8  PHE8       -0.1962
     10  CA        17.9850    9.9260    5.6100 C.3     8  PHE8        0.1771
     11  C         19.1280   10.4350    4.7270 C.2     8  PHE8        0.2620
     12  O         18.9350   11.3710    3.9740 O.2     8  PHE8       -0.2715
     13  CB        17.0310    9.0640    4.7660 C.3     8  PHE8        0.0574
     14  CG        15.7300    8.7130    5.4540 C.ar    8  PHE8       -0.0200
     15  CD1       15.5770    8.8620    6.8350 C.ar    8  PHE8       -0.0042
     16  CD2       14.6560    8.2250    4.7130 C.ar    8  PHE8       -0.0042
     17  CE1       14.3690    8.5310    7.4690 C.ar    8  PHE8       -0.0003
     18  CE2       13.4480    7.8900    5.3280 C.ar    8  PHE8       -0.0003
     19  CZ        13.3050    8.0450    6.7180 C.ar    8  PHE8       -0.0000
     20  N         20.3100    9.8240    4.8050 N.am    9  ASP9       -0.1957
     21  CA        21.4530   10.2860    3.9980 C.3     9  ASP9        0.1840
     22  C         21.3790    9.9260    2.4980 C.2     9  ASP9        0.2622
     23  O         21.0930    8.7820    2.1530 O.2     9  ASP9       -0.2715
     24  CB        22.7600    9.7480    4.5990 C.3     9  ASP9        0.1450
     25  CG        22.9310   10.1240    6.0680 C.2     9  ASP9        0.3671
     26  OD1       22.6220   11.2770    6.4360 O.co2   9  ASP9       -0.2456
     27  OD2       23.3880    9.2650    6.8570 O.co2   9  ASP9       -0.2456
     28  N         21.6360   10.9100    1.6250 N.am   10  TYR10      -0.1960
     29  CA        21.6020   10.7330    0.1570 C.3    10  TYR10       0.1771
     30  C         20.6710    9.5760   -0.2060 C.2    10  TYR10       0.2620
     31  O         21.0310    8.6640   -0.9700 O.2    10  TYR10      -0.2715
     32  CB        23.0350   10.4890   -0.3790 C.3    10  TYR10       0.0574
     33  CG        23.7670    9.2640    0.1620 C.ar   10  TYR10      -0.0198
     34  CD1       23.9650    8.1380   -0.6400 C.ar   10  TYR10      -0.0009
     35  CD2       24.2690    9.2340    1.4640 C.ar   10  TYR10      -0.0009
     36  CE1       24.6440    7.0150   -0.1630 C.ar   10  TYR10       0.0417
     37  CE2       24.9490    8.1110    1.9550 C.ar   10  TYR10       0.0417
     38  CZ        25.1320    7.0060    1.1320 C.ar   10  TYR10       0.1957
     39  OH        25.8040    5.8920    1.5930 O.3    10  TYR10      -0.2866
     40  N         19.4450    9.6730    0.3150 N.am   11  PHE11      -0.1960
     41  CA        18.4510    8.6170    0.2300 C.3    11  PHE11       0.1771
     42  C         18.2950    7.7350   -0.9880 C.2    11  PHE11       0.2619
     43  O         18.5010    6.5270   -0.8780 O.2    11  PHE11      -0.2715
     44  CB        17.0750    9.1340    0.6550 C.3    11  PHE11       0.0574
     45  CG        16.0940    8.0310    0.9680 C.ar   11  PHE11      -0.0200
     46  CD1       16.4730    6.9630    1.7850 C.ar   11  PHE11      -0.0042
     47  CD2       14.8180    8.0300    0.4130 C.ar   11  PHE11      -0.0042
     48  CE1       15.6040    5.9100    2.0390 C.ar   11  PHE11      -0.0003
     49  CE2       13.9270    6.9760    0.6600 C.ar   11  PHE11      -0.0003
     50  CZ        14.3230    5.9100    1.4760 C.ar   11  PHE11      -0.0000
     51  N         17.9180    8.2870   -2.1350 N.am   12  TYR12      -0.1974
     52  CA        17.7350    7.4270   -3.3030 C.3    12  TYR12       0.1639
     53  C         19.0020    6.6550   -3.6480 C.2    12  TYR12       0.2290
     54  O         18.9600    5.4470   -3.8870 O.2    12  TYR12      -0.2864
     55  CB        17.2950    8.2360   -4.5240 C.3    12  TYR12       0.0560
     56  CG        15.9850    8.9660   -4.3620 C.ar   12  TYR12      -0.0198
     57  CD1       15.1400    8.6980   -3.2830 C.ar   12  TYR12      -0.0009
     58  CD2       15.5740    9.9060   -5.3060 C.ar   12  TYR12      -0.0009
     59  CE1       13.9230    9.3430   -3.1480 C.ar   12  TYR12       0.0417
     60  CE2       14.3500   10.5630   -5.1850 C.ar   12  TYR12       0.0417
     61  CZ        13.5320   10.2770   -4.1010 C.ar   12  TYR12       0.1957
     62  OH        12.3370   10.9410   -3.9530 O.3    12  TYR12      -0.2866
     63  N         19.5240   15.2750  -12.4090 N.3    43  VAL43      -0.1231
     64  CA        19.9850   14.4260  -11.3250 C.3    43  VAL43       0.1692
     65  C         19.0480   14.6260  -10.1280 C.2    43  VAL43       0.2592
     66  O         18.7920   15.7630   -9.7200 O.2    43  VAL43      -0.2718
     67  CB        21.4380   14.8190  -10.9060 C.3    43  VAL43       0.0266
     68  CG1       21.8600   14.0400   -9.6700 C.3    43  VAL43       0.0020
     69  CG2       22.4150   14.5570  -12.0600 C.3    43  VAL43       0.0020
     70  N         18.5210   13.5360   -9.5780 N.am   44  ALA44      -0.1966
     71  CA        17.6350   13.6380   -8.4130 C.3    44  ALA44       0.1728
     72  C         18.5240   13.7510   -7.1760 C.2    44  ALA44       0.2616
     73  O         18.2680   14.5510   -6.2710 O.2    44  ALA44      -0.2715
     74  CB        16.7330   12.4040   -8.3140 C.3    44  ALA44       0.0334
     75  N         19.5570   12.9190   -7.1430 N.am   45  THR45      -0.1951
     76  CA        20.5360   12.9270   -6.0730 C.3    45  THR45       0.1897
     77  C         21.7340   12.0500   -6.4280 C.2    45  THR45       0.2313
     78  O         21.6870   11.2570   -7.3610 O.2    45  THR45      -0.2863
     79  CB        19.9570   12.4470   -4.7240 C.3    45  THR45       0.1794
     80  OG1       20.9570   12.6230   -3.7120 O.3    45  THR45      -0.2208
     81  CG2       19.5630   10.9790   -4.7790 C.3    45  THR45       0.0378
     82  N         27.7440   10.7450   -1.7710 N.3    48  TYR48      -0.1241
     83  CA        28.7590   11.7330   -1.4630 C.3    48  TYR48       0.1605
     84  C         30.0340   11.6170   -2.2770 C.2    48  TYR48       0.2264
     85  O         30.7390   12.6030   -2.4450 O.2    48  TYR48      -0.2867
     86  CB        29.0590   11.7460    0.0420 C.3    48  TYR48       0.0534
     87  CG        28.0010   12.5040    0.8330 C.ar   48  TYR48      -0.0201
     88  CD1       26.7560   11.9310    1.1090 C.ar   48  TYR48      -0.0009
     89  CD2       28.2350   13.8090    1.2720 C.ar   48  TYR48      -0.0009
     90  CE1       25.7710   12.6410    1.8070 C.ar   48  TYR48       0.0417
     91  CE2       27.2610   14.5260    1.9650 C.ar   48  TYR48       0.0417
     92  CZ        26.0330   13.9340    2.2290 C.ar   48  TYR48       0.1957
     93  OH        25.0780   14.6380    2.9200 O.3    48  TYR48      -0.2866
     94  N         29.3710   13.7660   -5.1670 N.3    51  ARG51      -0.1245
     95  CA        29.2610   15.1720   -4.7880 C.3    51  ARG51       0.1563
     96  C         30.6320   15.8190   -4.6300 C.2    51  ARG51       0.2260
     97  O         30.7800   17.0230   -4.7940 O.2    51  ARG51      -0.2867
     98  CB        28.4580   15.3160   -3.4880 C.3    51  ARG51       0.0307
     99  CG        27.0190   14.8290   -3.5970 C.3    51  ARG51       0.0489
    100  CD        26.2460   15.0430   -2.2910 C.3    51  ARG51       0.2205
    101  NE        24.9750   14.3270   -2.2910 N.pl3  51  ARG51      -0.0865
    102  CZ        24.0140   14.4960   -1.3840 C.cat  51  ARG51       0.5346
    103  NH1       24.1680   15.3690   -0.3900 N.pl3  51  ARG51       0.1354
    104  NH2       22.9010   13.7790   -1.4670 N.pl3  51  ARG51       0.1354
    105  N         22.0670   17.3170   -6.8960 N.3    57  ALA57      -0.1231
    106  CA        20.6790   17.2770   -7.3370 C.3    57  ALA57       0.1694
    107  C         20.3420   18.5330   -8.1300 C.2    57  ALA57       0.2592
    108  O         20.7890   19.6250   -7.7920 O.2    57  ALA57      -0.2718
    109  CB        19.7560   17.1660   -6.1330 C.3    57  ALA57       0.0304
    110  N         19.5670   18.3710   -9.1930 N.am   58  GLY58      -0.1957
    111  CA        19.1680   19.5180   -9.9860 C.3    58  GLY58       0.1869
    112  C         19.9280   19.7670  -11.2740 C.2    58  GLY58       0.2309
    113  O         19.3720   20.3430  -12.2050 O.2    58  GLY58      -0.2863
    114  N         15.7480    6.7480  -11.7480 N.3    76  MET76      -0.1245
    115  CA        15.0450    6.8210  -10.4800 C.3    76  MET76       0.1570
    116  C         13.9270    5.7810  -10.4090 C.2    76  MET76       0.2261
    117  O         13.1600    5.6200  -11.3590 O.2    76  MET76      -0.2867
    118  CB        14.4720    8.2270  -10.2770 C.3    76  MET76       0.0387
    119  CG        14.1380    8.5410   -8.8260 C.3    76  MET76       0.0595
    120  SD        13.5860   10.2130   -8.6030 S.3    76  MET76      -0.1393
    121  CE        11.8430    9.9930   -8.5610 C.3    76  MET76       0.0692
    122  N          9.4790   12.4360    1.8020 N.3   104  ILE104     -0.1231
    123  CA         9.9240   11.0600    1.6510 C.3   104  ILE104      0.1692
    124  C         11.1030   10.6550    2.5360 C.2   104  ILE104      0.2592
    125  O         11.2390    9.4850    2.8890 O.2   104  ILE104     -0.2718
    126  CB        10.2550   10.7530    0.1640 C.3   104  ILE104      0.0266
    127  CG1       10.4110    9.2440   -0.0310 C.3   104  ILE104      0.0019
    128  CG2       11.5140   11.4960   -0.2580 C.3   104  ILE104      0.0020
    129  CD1       10.3930    8.8110   -1.4920 C.3   104  ILE104      0.0001
    130  N         11.9530   11.6000    2.9210 N.am  105  ASP105     -0.1974
    131  CA        13.0830   11.2080    3.7520 C.3   105  ASP105      0.1709
    132  C         13.3930   12.1270    4.9260 C.2   105  ASP105      0.2293
    133  O         14.5370   12.2060    5.3800 O.2   105  ASP105     -0.2864
    134  CB        14.3150   11.0310    2.8670 C.3   105  ASP105      0.1436
    135  CG        15.0450   12.3170    2.6250 C.2   105  ASP105      0.3671
    136  OD1       14.4040   13.3680    2.4300 O.co2 105  ASP105     -0.2456
    137  OD2       16.2790   12.2620    2.6180 O.co2 105  ASP105     -0.2456
    138  N         24.9870   16.2430    8.6810 N.3   159  LYS159     -0.1245
    139  CA        24.9590   15.2060    7.6520 C.3   159  LYS159      0.1561
    140  C         26.2800   15.1020    6.8860 C.2   159  LYS159      0.2260
    141  O         27.0120   16.0880    6.7460 O.2   159  LYS159     -0.2867
    142  CB        23.7750   15.4240    6.6810 C.3   159  LYS159      0.0271
    143  CG        23.8000   16.7140    5.8780 C.3   159  LYS159      0.0035
    144  CD        22.6100   16.8120    4.9050 C.3   159  LYS159      0.0206
    145  CE        21.2630   16.7330    5.6400 C.3   159  LYS159      0.1093
    146  NZ        20.0890   17.0050    4.7410 N.3   159  LYS159     -0.1314
@<TRIPOS>BOND
     1    63    64    1
     2   113   112    2
     3    69    67    1
     4   114   115    1
     5   117   116    2
     6    64    67    1
     7    64    65    1
     8   112   111    1
     9    67    68    1
    10   115   116    1
    11   115   118    1
    12   118   119    1
    13    65    66    2
    14    65    70   am
    15   111   110    1
    16    70    71    1
    17   110   107   am
    18   119   120    1
    19   120   121    1
    20    71    74    1
    21    71    72    1
    22   107   108    2
    23   107   106    1
    24    78    77    2
    25   106   105    1
    26   106   109    1
    27    72    75   am
    28    72    73    2
    29    75    76    1
    30    77    76    1
    31    76    79    1
    32    58    60   ar
    33    58    56   ar
    34    60    61   ar
    35    94    95    1
    36    97    96    2
    37    95    96    1
    38    95    98    1
    39    81    79    1
    40    79    80    1
    41    55    56    1
    42    55    52    1
    43    56    57   ar
    44    61    62    1
    45    61    59   ar
    46    54    53    2
    47    53    52    1
    48    99    98    1
    49    99   100    1
    50    52    51    1
    51    57    59   ar
    52    85    84    2
    53   101   100    1
    54   101   102    2
    55    84    83    1
    56    51    42   am
    57    82    83    1
    58   129   127    1
    59   104   102    1
    60    83    86    1
    61   102   103    1
    62    42    43    2
    63    42    41    1
    64    31    30    2
    65    34    36   ar
    66    34    33   ar
    67    32    29    1
    68    32    33    1
    69   128   126    1
    70    30    29    1
    71    30    40   am
    72    36    38   ar
    73   127   126    1
    74    86    87    1
    75    29    28    1
    76    33    35   ar
    77   126   123    1
    78    41    40    1
    79    41    44    1
    80    47    49   ar
    81    47    45   ar
    82    44    45    1
    83    49    50   ar
    84    87    88   ar
    85    87    89   ar
    86    45    46   ar
    87    88    90   ar
    88    38    39    1
    89    38    37   ar
    90    89    91   ar
    91    35    37   ar
    92    50    48   ar
    93    28    22   am
    94   123   122    1
    95   123   124    1
    96    46    48   ar
    97    90    92   ar
    98    91    92   ar
    99    23    22    2
   100    92    93    1
   101   136   135   ar
   102    22    21    1
   103   124   125    2
   104   124   130   am
   105   137   135   ar
   106   135   134    1
   107   134   131    1
   108   130   131    1
   109   131   132    1
   110    12    11    2
   111    21    24    1
   112    21    20    1
   113    24    25    1
   114    16    18   ar
   115    16    14   ar
   116    11    20   am
   117    11    10    1
   118   146   145    1
   119    13    14    1
   120    13    10    1
   121   144   145    1
   122   144   143    1
   123   132   133    2
   124    18    19   ar
   125     8     6   ar
   126    14    15   ar
   127    10     9    1
   128     7     6   ar
   129   143   142    1
   130    25    26   ar
   131    25    27   ar
   132     6     5    1
   133     9     3   am
   134   142   139    1
   135    19    17   ar
   136   141   140    2
   137    15    17   ar
   138   140   139    1
   139     3     4    2
   140     3     2    1
   141     5     2    1
   142     2     1    1
   143   139   138    1
