@<TRIPOS>MOLECULE
tmp/1s9gA00.pdb
 153 150 0 0 0
SMALL
GASTEIGER

@<TRIPOS>ATOM
      1  N        138.3170  -15.8950   74.7560 N.3    95  PRO95      -0.2102
      2  CA       137.5340  -16.8190   73.9310 C.3    95  PRO95       0.1504
      3  C        136.6530  -17.7090   74.7440 C.2    95  PRO95       0.2575
      4  O        136.9990  -18.0750   75.8440 O.2    95  PRO95      -0.2718
      5  CB       138.6030  -17.5930   73.1820 C.3    95  PRO95       0.0282
      6  CG       139.7210  -17.5930   74.1200 C.3    95  PRO95       0.0208
      7  CD       139.7490  -16.1940   74.6420 C.3    95  PRO95       0.0893
      8  N        135.4900  -18.0470   74.2260 N.am   96  HIS96      -0.1976
      9  CA       134.6200  -18.9210   74.9770 C.3    96  HIS96       0.1656
     10  C        134.8120  -20.2730   74.3730 C.2    96  HIS96       0.2291
     11  O        134.8450  -20.4050   73.1610 O.2    96  HIS96      -0.2864
     12  CB       133.1620  -18.5310   74.8410 C.3    96  HIS96       0.0771
     13  CG       132.2500  -19.3900   75.6480 C.ar   96  HIS96       0.0820
     14  ND1      131.4500  -18.8930   76.6520 N.ar   96  HIS96      -0.2267
     15  CD2      132.0410  -20.7260   75.6250 C.ar   96  HIS96       0.1154
     16  CE1      130.7850  -19.8880   77.2130 C.ar   96  HIS96       0.1986
     17  NE2      131.1250  -21.0100   76.6080 N.ar   96  HIS96      -0.2212
     18  N        132.9300  -21.6680   71.3770 N.3    99  GLY99      -0.1210
     19  CA       133.1900  -21.0880   70.0720 C.3    99  GLY99       0.1956
     20  C        134.4040  -21.6420   69.3720 C.2    99  GLY99       0.2612
     21  O        134.6450  -21.3220   68.2120 O.2    99  GLY99      -0.2717
     22  N        135.1770  -22.4680   70.0680 N.am  100  LEU100     -0.1965
     23  CA       136.3700  -23.0760   69.4820 C.3   100  LEU100      0.1728
     24  C        135.8810  -24.0940   68.4590 C.2   100  LEU100      0.2616
     25  O        134.8790  -24.7880   68.6840 O.2   100  LEU100     -0.2715
     26  CB       137.2060  -23.7590   70.5770 C.3   100  LEU100      0.0311
     27  CG       137.4420  -22.8790   71.8140 C.3   100  LEU100      0.0022
     28  CD1      138.0770  -23.6790   72.9340 C.3   100  LEU100      0.0001
     29  CD2      138.3140  -21.7100   71.4330 C.3   100  LEU100      0.0001
     30  N        136.5670  -24.1810   67.3280 N.am  101  LYS101     -0.1977
     31  CA       136.1440  -25.1190   66.3030 C.3   101  LYS101      0.1596
     32  C        136.6880  -26.5210   66.5170 C.2   101  LYS101      0.2287
     33  O        137.8690  -26.7010   66.8280 O.2   101  LYS101     -0.2864
     34  CB       136.5520  -24.6140   64.9240 C.3   101  LYS101      0.0298
     35  CG       136.1350  -25.5000   63.7730 C.3   101  LYS101      0.0038
     36  CD       136.5900  -24.9300   62.4270 C.3   101  LYS101      0.0206
     37  CE       136.1800  -25.8580   61.2650 C.3   101  LYS101      0.1093
     38  NZ       136.5950  -25.2980   59.9440 N.3   101  LYS101     -0.1314
     39  N        138.4200  -29.6890   66.5580 N.3   103  LYS103     -0.1245
     40  CA       139.7400  -30.0310   66.0230 C.3   103  LYS103      0.1561
     41  C        140.1570  -31.3870   66.5740 C.2   103  LYS103      0.2260
     42  O        139.5740  -31.8790   67.5460 O.2   103  LYS103     -0.2867
     43  CB       140.7750  -28.9680   66.4090 C.3   103  LYS103      0.0271
     44  CG       140.4410  -27.5730   65.8940 C.3   103  LYS103      0.0035
     45  CD       140.1250  -27.6350   64.3870 C.3   103  LYS103      0.0206
     46  CE       139.1930  -26.5100   63.9060 C.3   103  LYS103      0.1093
     47  NZ       138.7490  -26.6840   62.4760 N.3   103  LYS103     -0.1314
     48  N        145.3660  -30.9130   69.8410 N.3   106  VAL106     -0.1245
     49  CA       145.5440  -29.5970   70.3920 C.3   106  VAL106      0.1561
     50  C        146.6280  -29.8680   71.3870 C.2   106  VAL106      0.2260
     51  O        146.4780  -30.7550   72.2140 O.2   106  VAL106     -0.2867
     52  CB       144.2930  -29.1310   71.1410 C.3   106  VAL106      0.0252
     53  CG1      144.5990  -27.8630   71.9250 C.3   106  VAL106      0.0019
     54  CG2      143.1570  -28.9000   70.1600 C.3   106  VAL106      0.0019
     55  N        146.7420  -23.7400   63.6420 N.3   179  VAL179     -0.1245
     56  CA       146.2110  -22.4860   64.1190 C.3   179  VAL179      0.1561
     57  C        146.8420  -22.4120   65.5030 C.2   179  VAL179      0.2260
     58  O        147.1000  -23.4410   66.1310 O.2   179  VAL179     -0.2867
     59  CB       144.6750  -22.5220   64.1850 C.3   179  VAL179      0.0252
     60  CG1      144.1330  -21.1620   64.5910 C.3   179  VAL179      0.0019
     61  CG2      144.1290  -22.8760   62.8310 C.3   179  VAL179      0.0019
     62  N        146.9690  -20.2470   69.3910 N.3   181  TYR181     -0.1241
     63  CA       146.3340  -19.3190   70.3060 C.3   181  TYR181      0.1605
     64  C        147.2960  -19.0220   71.4420 C.2   181  TYR181      0.2264
     65  O        147.6850  -19.9270   72.1660 O.2   181  TYR181     -0.2867
     66  CB       145.0590  -19.9140   70.8790 C.3   181  TYR181      0.0534
     67  CG       144.5120  -19.1060   72.0240 C.ar  181  TYR181     -0.0201
     68  CD1      144.1720  -17.7660   71.8620 C.ar  181  TYR181     -0.0009
     69  CD2      144.3440  -19.6780   73.2810 C.ar  181  TYR181     -0.0009
     70  CE1      143.6760  -17.0230   72.9450 C.ar  181  TYR181      0.0417
     71  CE2      143.8450  -18.9560   74.3510 C.ar  181  TYR181      0.0417
     72  CZ       143.5170  -17.6350   74.1840 C.ar  181  TYR181      0.1957
     73  OH       143.0350  -16.9320   75.2560 O.3   181  TYR181     -0.2866
     74  N        148.8090  -22.6590   72.7660 N.3   188  TYR188     -0.1241
     75  CA       148.0530  -23.8310   72.3710 C.3   188  TYR188      0.1605
     76  C        148.0100  -23.9800   70.8650 C.2   188  TYR188      0.2264
     77  O        147.4930  -23.1230   70.1720 O.2   188  TYR188     -0.2867
     78  CB       146.6290  -23.7480   72.8920 C.3   188  TYR188      0.0534
     79  CG       146.5100  -23.6550   74.3910 C.ar  188  TYR188     -0.0201
     80  CD1      146.2400  -22.4390   75.0050 C.ar  188  TYR188     -0.0009
     81  CD2      146.6410  -24.7820   75.2010 C.ar  188  TYR188     -0.0009
     82  CE1      146.0980  -22.3430   76.3950 C.ar  188  TYR188      0.0417
     83  CE2      146.5000  -24.6900   76.5900 C.ar  188  TYR188      0.0417
     84  CZ       146.2250  -23.4640   77.1780 C.ar  188  TYR188      0.1957
     85  OH       146.0500  -23.3330   78.5440 O.3   188  TYR188     -0.2866
     86  N        146.8410  -26.3050   67.5340 N.3   190  GLY190     -0.1225
     87  CA       145.8860  -27.3290   67.1400 C.3   190  GLY190      0.1811
     88  C        145.9030  -27.5930   65.6480 C.2   190  GLY190      0.2280
     89  O        146.3500  -26.7510   64.8730 O.2   190  GLY190     -0.2866
     90  N        142.5780  -29.6000   79.7240 N.3   227  PHE227     -0.1241
     91  CA       143.2740  -28.3730   80.0360 C.3   227  PHE227      0.1605
     92  C        142.4840  -27.4990   80.9680 C.2   227  PHE227      0.2264
     93  O        141.2980  -27.2510   80.7490 O.2   227  PHE227     -0.2867
     94  CB       143.5010  -27.5980   78.7710 C.3   227  PHE227      0.0534
     95  CG       144.3790  -28.2900   77.8030 C.ar  227  PHE227     -0.0203
     96  CD1      145.7610  -28.2380   77.9510 C.ar  227  PHE227     -0.0042
     97  CD2      143.8380  -28.9850   76.7280 C.ar  227  PHE227     -0.0042
     98  CE1      146.5970  -28.8670   77.0390 C.ar  227  PHE227     -0.0003
     99  CE2      144.6630  -29.6200   75.8080 C.ar  227  PHE227     -0.0003
    100  CZ       146.0470  -29.5600   75.9630 C.ar  227  PHE227     -0.0000
    101  N        141.8420  -23.9200   82.2360 N.3   229  TRP229     -0.1241
    102  CA       142.0190  -22.5770   81.6850 C.3   229  TRP229      0.1605
    103  C        140.8530  -21.6750   82.0560 C.2   229  TRP229      0.2264
    104  O        139.6900  -22.0220   81.8230 O.2   229  TRP229     -0.2867
    105  CB       142.1110  -22.6720   80.1630 C.3   229  TRP229      0.0550
    106  CG       142.2530  -21.3750   79.4760 C.ar  229  TRP229      0.0003
    107  CD1      143.3770  -20.6260   79.3770 C.ar  229  TRP229      0.0946
    108  CD2      141.2340  -20.6700   78.7710 C.ar  229  TRP229      0.0152
    109  NE1      143.1270  -19.4960   78.6510 N.ar  229  TRP229     -0.2442
    110  CE2      141.8160  -19.4990   78.2630 C.ar  229  TRP229      0.0810
    111  CE3      139.8840  -20.9190   78.5130 C.ar  229  TRP229      0.0012
    112  CZ2      141.1010  -18.5750   77.5120 C.ar  229  TRP229      0.0191
    113  CZ3      139.1700  -20.0010   77.7650 C.ar  229  TRP229      0.0001
    114  CH2      139.7810  -18.8450   77.2720 C.ar  229  TRP229      0.0015
    115  N        138.8730  -28.3350   79.6900 N.3   234  LEU234     -0.1245
    116  CA       138.8430  -28.4950   78.2380 C.3   234  LEU234      0.1561
    117  C        139.4290  -29.8120   77.7360 C.2   234  LEU234      0.2260
    118  O        140.6510  -29.9710   77.6940 O.2   234  LEU234     -0.2867
    119  CB       139.5670  -27.3170   77.5640 C.3   234  LEU234      0.0270
    120  CG       138.8120  -25.9780   77.4970 C.3   234  LEU234      0.0019
    121  CD1      139.7480  -24.8650   77.7890 C.3   234  LEU234      0.0001
    122  CD2      138.1870  -25.7710   76.1490 C.3   234  LEU234      0.0001
    123  N        139.6970  -32.9720   74.6630 N.3   236  PRO236     -0.2116
    124  CA       139.8240  -33.0590   73.2050 C.3   236  PRO236      0.1372
    125  C        138.5930  -32.7450   72.4040 C.2   236  PRO236      0.2244
    126  O        138.6690  -32.0240   71.4230 O.2   236  PRO236     -0.2868
    127  CB       140.3000  -34.4780   72.9880 C.3   236  PRO236      0.0268
    128  CG       141.2300  -34.6410   74.1460 C.3   236  PRO236      0.0207
    129  CD       140.4110  -34.0910   75.3000 C.3   236  PRO236      0.0892
    130  N        131.9410  -28.7090   70.8400 N.3   318  TYR318     -0.1227
    131  CA       132.5760  -27.6230   70.1070 C.3   318  TYR318      0.1736
    132  C        131.8360  -27.1710   68.8420 C.2   318  TYR318      0.2595
    133  O        130.7440  -27.6690   68.5430 O.2   318  TYR318     -0.2718
    134  CB       134.0050  -28.0030   69.7890 C.3   318  TYR318      0.0548
    135  CG       134.8530  -28.0760   71.0340 C.ar  318  TYR318     -0.0200
    136  CD1      136.0410  -28.8010   71.0490 C.ar  318  TYR318     -0.0009
    137  CD2      134.5020  -27.3890   72.1840 C.ar  318  TYR318     -0.0009
    138  CE1      136.8620  -28.8370   72.1740 C.ar  318  TYR318      0.0417
    139  CE2      135.3200  -27.4210   73.3180 C.ar  318  TYR318      0.0417
    140  CZ       136.4950  -28.1470   73.2980 C.ar  318  TYR318      0.1957
    141  OH       137.3130  -28.2020   74.3980 O.3   318  TYR318     -0.2866
    142  N        132.4340  -26.2240   68.1070 N.am  319  TYR319     -0.1976
    143  CA       131.7960  -25.6420   66.9250 C.3   319  TYR319      0.1639
    144  C        132.1600  -26.2240   65.6050 C.2   319  TYR319      0.2290
    145  O        133.3370  -26.3680   65.2830 O.2   319  TYR319     -0.2864
    146  CB       132.0560  -24.1190   66.8370 C.3   319  TYR319      0.0560
    147  CG       131.2560  -23.3930   65.7350 C.ar  319  TYR319     -0.0198
    148  CD1      129.8620  -23.4880   65.6860 C.ar  319  TYR319     -0.0009
    149  CD2      131.8900  -22.6060   64.7490 C.ar  319  TYR319     -0.0009
    150  CE1      129.1150  -22.8300   64.7020 C.ar  319  TYR319      0.0417
    151  CE2      131.1370  -21.9360   63.7450 C.ar  319  TYR319      0.0417
    152  CZ       129.7500  -22.0650   63.7450 C.ar  319  TYR319      0.1957
    153  OH       128.9640  -21.4410   62.8090 O.3   319  TYR319     -0.2866
@<TRIPOS>BOND
     1    38    37    1
     2    37    36    1
     3    36    35    1
     4    47    46    1
     5   153   152    1
     6    61    59    1
     7    55    56    1
     8   152   151   ar
     9   152   150   ar
    10   151   149   ar
    11    35    34    1
    12    46    45    1
    13    56    59    1
    14    56    57    1
    15    59    60    1
    16    45    44    1
    17   150   148   ar
    18   149   147   ar
    19    89    88    2
    20    34    31    1
    21   145   144    2
    22    57    58    2
    23   144   143    1
    24    88    87    1
    25   148   147   ar
    26   147   146    1
    27    44    43    1
    28    40    43    1
    29    40    39    1
    30    40    41    1
    31    31    32    1
    32    31    30    1
    33    32    33    2
    34    41    42    2
    35   146   143    1
    36   143   142    1
    37    87    86    1
    38    30    24   am
    39   142   132   am
    40    21    20    2
    41    24    25    2
    42    24    23    1
    43   133   132    2
    44   132   131    1
    45    20    22   am
    46    20    19    1
    47    62    63    1
    48    23    22    1
    49    23    26    1
    50   134   131    1
    51   134   135    1
    52    48    49    1
    53    19    18    1
    54   131   130    1
    55    54    52    1
    56    77    76    2
    57    63    66    1
    58    63    64    1
    59    49    52    1
    60    49    50    1
    61    26    27    1
    62    76    75    1
    63    66    67    1
    64   135   136   ar
    65   135   137   ar
    66   136   138   ar
    67    52    53    1
    68    50    51    2
    69   126   125    2
    70    29    27    1
    71    64    65    2
    72    27    28    1
    73    68    67   ar
    74    68    70   ar
    75    67    69   ar
    76   138   140   ar
    77   137   139   ar
    78    75    74    1
    79    75    78    1
    80   125   124    1
    81    78    79    1
    82    70    72   ar
    83   127   124    1
    84   127   128    1
    85    11    10    2
    86     5     2    1
    87     5     6    1
    88   124   123    1
    89    69    71   ar
    90   140   139   ar
    91   140   141    1
    92     2     3    1
    93     2     1    1
    94     6     7    1
    95   128   129    1
    96    72    71   ar
    97    72    73    1
    98     8     3   am
    99     8     9    1
   100    10     9    1
   101    79    80   ar
   102    79    81   ar
   103     7     1    1
   104   123   129    1
   105     3     4    2
   106    12     9    1
   107    12    13    1
   108    80    82   ar
   109    81    83   ar
   110    15    13   ar
   111    15    17   ar
   112    13    14   ar
   113    99   100   ar
   114    99    97   ar
   115   100    98   ar
   116   122   120    1
   117    82    84   ar
   118    83    84   ar
   119    17    16   ar
   120    14    16   ar
   121    97    95   ar
   122    98    96   ar
   123    84    85    1
   124   114   112   ar
   125   114   113   ar
   126   120   119    1
   127   120   121    1
   128   112   110   ar
   129   119   116    1
   130   118   117    2
   131   117   116    1
   132   113   111   ar
   133    95    96   ar
   134    95    94    1
   135   116   115    1
   136   110   109   ar
   137   110   108   ar
   138   111   108   ar
   139   109   107   ar
   140    94    91    1
   141   108   106   ar
   142   107   106   ar
   143   106   105    1
   144    90    91    1
   145    91    92    1
   146   105   102    1
   147    93    92    2
   148   102   103    1
   149   102   101    1
   150   104   103    2
