@<TRIPOS>MOLECULE
tmp/1s9iB01.pdb
 170 159 0 0 0
SMALL
GASTEIGER

@<TRIPOS>ATOM
      1  N         28.0390  111.5240   49.5770 N.3    24  ASN24      -0.1225
      2  CA        28.6390  110.5980   48.6170 C.3    24  ASN24       0.1785
      3  C         29.5570  111.2960   47.6190 C.2    24  ASN24       0.2598
      4  O         29.1390  111.6550   46.5120 O.2    24  ASN24      -0.2718
      5  CB        27.5530  109.8210   47.8790 C.3    24  ASN24       0.1169
      6  CG        26.9040  108.7780   48.7470 C.2    24  ASN24       0.2627
      7  OD1       27.5020  107.7450   49.0470 O.2    24  ASN24      -0.2716
      8  ND2       25.6720  109.0430   49.1670 N.am   24  ASN24      -0.0877
      9  N         30.8130  111.4750   48.0220 N.am   25  GLY25      -0.1942
     10  CA        31.7900  112.1960   47.2260 C.3    25  GLY25       0.2017
     11  C         31.6180  113.6930   47.3930 C.2    25  GLY25       0.2678
     12  O         31.3240  114.3970   46.4220 O.2    25  GLY25      -0.2710
     13  N         31.7890  114.1740   48.6250 N.am   26  GLY26      -0.1729
     14  CA        31.6120  115.5830   48.9270 C.2    26  GLY26       0.1340
     15  C         31.6270  115.9680   50.3970 C.2    26  GLY26       0.2521
     16  O         30.8690  115.4210   51.2020 O.2    26  GLY26      -0.2816
     17  N         32.2820  123.5120   48.8660 N.3    43  LYS43      -0.1245
     18  CA        32.0220  122.1190   48.5260 C.3    43  LYS43       0.1561
     19  C         33.2320  121.4490   47.8910 C.2    43  LYS43       0.2260
     20  O         33.5310  121.6520   46.7140 O.2    43  LYS43      -0.2867
     21  CB        30.7900  121.9790   47.6300 C.3    43  LYS43       0.0271
     22  CG        30.1800  120.5890   47.6720 C.3    43  LYS43       0.0035
     23  CD        28.6640  120.6280   47.5740 C.3    43  LYS43       0.0206
     24  CE        28.0880  119.2520   47.2750 C.3    43  LYS43       0.1093
     25  NZ        28.6910  118.6560   46.0510 N.3    43  LYS43      -0.1314
     26  N         34.9060  118.3460   46.3730 N.3    45  ILE45      -0.1245
     27  CA        34.5880  117.0870   45.7060 C.3    45  ILE45       0.1561
     28  C         35.8780  116.3400   45.3540 C.2    45  ILE45       0.2260
     29  O         36.5710  116.6770   44.3850 O.2    45  ILE45      -0.2867
     30  CB        33.6650  117.3160   44.4780 C.3    45  ILE45       0.0252
     31  CG1       32.2500  117.6640   44.9460 C.3    45  ILE45       0.0019
     32  CG2       33.5920  116.0750   43.5940 C.3    45  ILE45       0.0019
     33  CD1       31.8340  119.0860   44.6420 C.3    45  ILE45       0.0001
     34  N         30.7490  123.8300   34.6900 N.3    61  LEU61      -0.1245
     35  CA        30.2570  124.3490   35.9650 C.3    61  LEU61       0.1561
     36  C         30.1520  125.8770   35.9740 C.2    61  LEU61       0.2260
     37  O         29.5970  126.4590   36.9110 O.2    61  LEU61      -0.2867
     38  CB        31.1590  123.8940   37.1180 C.3    61  LEU61       0.0270
     39  CG        30.8690  122.5550   37.7950 C.3    61  LEU61       0.0019
     40  CD1       32.1320  122.0290   38.4540 C.3    61  LEU61       0.0001
     41  CD2       29.7720  122.6920   38.8210 C.3    61  LEU61       0.0001
     42  N         26.8070  128.0680   36.0840 N.3    64  LEU64      -0.1245
     43  CA        26.1560  128.2960   37.3650 C.3    64  LEU64       0.1561
     44  C         26.1630  129.7830   37.6850 C.2    64  LEU64       0.2260
     45  O         25.2730  130.2870   38.3730 O.2    64  LEU64      -0.2867
     46  CB        26.8580  127.5110   38.4700 C.3    64  LEU64       0.0270
     47  CG        26.2510  126.1770   38.9020 C.3    64  LEU64       0.0019
     48  CD1       27.3410  125.2770   39.4320 C.3    64  LEU64       0.0001
     49  CD2       25.1700  126.3820   39.9520 C.3    64  LEU64       0.0001
     50  N         20.2520  128.2520   44.8280 N.3    73  VAL73      -0.1231
     51  CA        21.3390  128.6460   45.7210 C.3    73  VAL73       0.1692
     52  C         22.3920  129.4400   44.9500 C.2    73  VAL73       0.2593
     53  O         22.7570  129.0830   43.8300 O.2    73  VAL73      -0.2718
     54  CB        21.9620  127.4110   46.4300 C.3    73  VAL73       0.0266
     55  CG1       23.3550  127.7080   46.9690 C.3    73  VAL73       0.0020
     56  CG2       21.0630  126.9380   47.5540 C.3    73  VAL73       0.0020
     57  N         22.8500  130.5330   45.5510 N.am   74  GLY74      -0.1942
     58  CA        23.8500  131.3840   44.9380 C.3    74  GLY74       0.2014
     59  C         25.1580  130.6520   44.7530 C.2    74  GLY74       0.2638
     60  O         25.5940  129.9350   45.6450 O.2    74  GLY74      -0.2714
     61  N         25.7750  130.8380   43.5900 N.am   75  PHE75      -0.1973
     62  CA        27.0430  130.2040   43.2610 C.3    75  PHE75       0.1639
     63  C         28.1360  131.2630   43.1340 C.2    75  PHE75       0.2290
     64  O         28.0730  132.1100   42.2480 O.2    75  PHE75      -0.2864
     65  CB        26.8840  129.4120   41.9610 C.3    75  PHE75       0.0560
     66  CG        28.1760  128.9280   41.3680 C.ar   75  PHE75      -0.0200
     67  CD1       28.7250  129.5640   40.2580 C.ar   75  PHE75      -0.0042
     68  CD2       28.8320  127.8210   41.8980 C.ar   75  PHE75      -0.0042
     69  CE1       29.9150  129.1150   39.6920 C.ar   75  PHE75      -0.0003
     70  CE2       30.0240  127.3670   41.3410 C.ar   75  PHE75      -0.0003
     71  CZ        30.5640  128.0150   40.2340 C.ar   75  PHE75      -0.0000
     72  N         33.5200  123.9270   44.9730 N.3    87  ILE87      -0.1245
     73  CA        32.4340  124.7920   44.5460 C.3    87  ILE87       0.1561
     74  C         32.0380  125.6410   45.7480 C.2    87  ILE87       0.2260
     75  O         31.5780  125.1320   46.7720 O.2    87  ILE87      -0.2867
     76  CB        31.2490  123.9680   43.9620 C.3    87  ILE87       0.0252
     77  CG1       31.5590  123.5430   42.5220 C.3    87  ILE87       0.0019
     78  CG2       29.9540  124.7670   43.9750 C.3    87  ILE87       0.0019
     79  CD1       31.3720  122.0630   42.2470 C.3    87  ILE87       0.0001
     80  N         29.6540  128.3590   47.3340 N.3    89  MET89      -0.1245
     81  CA        28.2870  128.8090   47.1240 C.3    89  MET89       0.1570
     82  C         27.7670  129.6440   48.2950 C.2    89  MET89       0.2261
     83  O         28.3830  129.6840   49.3590 O.2    89  MET89      -0.2867
     84  CB        27.3720  127.6030   46.8510 C.3    89  MET89       0.0387
     85  CG        27.1030  126.7090   48.0570 C.3    89  MET89       0.0595
     86  SD        26.2420  125.1800   47.6430 S.3    89  MET89      -0.1393
     87  CE        27.2970  123.9840   48.4300 C.3    89  MET89       0.0692
     88  N         18.3500  115.5170   41.2280 N.3   136  ASP136     -0.1239
     89  CA        18.5990  115.0710   42.5920 C.3   136  ASP136      0.1674
     90  C         17.8710  115.9400   43.6080 C.2   136  ASP136      0.2266
     91  O         18.4980  116.6330   44.4120 O.2   136  ASP136     -0.2867
     92  CB        20.1030  115.0680   42.8750 C.3   136  ASP136      0.1410
     93  CG        20.4570  114.3200   44.1390 C.2   136  ASP136      0.3668
     94  OD1       21.2810  114.8380   44.9230 O.co2 136  ASP136     -0.2456
     95  OD2       19.9660  113.2130   44.4340 O.co2 136  ASP136     -0.2456
     96  N         15.8740  116.2490   46.9430 N.3   138  LYS138     -0.1245
     97  CA        15.6280  115.5780   48.2190 C.3   138  LYS138      0.1561
     98  C         15.7940  116.5880   49.3510 C.2   138  LYS138      0.2260
     99  O         16.3530  117.6620   49.1330 O.2   138  LYS138     -0.2867
    100  CB        16.5690  114.3810   48.4180 C.3   138  LYS138      0.0271
    101  CG        18.0350  114.6310   48.1120 C.3   138  LYS138      0.0035
    102  CD        18.7000  113.3470   47.6650 C.3   138  LYS138      0.0206
    103  CE        20.0690  113.1900   48.2920 C.3   138  LYS138      0.1093
    104  NZ        21.1420  113.6110   47.3540 N.3   138  LYS138     -0.1314
    105  N         19.4300  123.2410   45.6860 N.3   153  CYS153     -0.1221
    106  CA        20.8760  123.0510   45.6190 C.3   153  CYS153      0.1808
    107  C         21.2340  121.7760   44.8670 C.2   153  CYS153      0.2601
    108  O         20.3900  120.9020   44.7030 O.2   153  CYS153     -0.2717
    109  CB        21.4440  122.9730   47.0350 C.3   153  CYS153      0.0970
    110  SG        23.2440  123.0290   47.1330 S.3   153  CYS153     -0.0800
    111  N         22.4890  121.6870   44.4180 N.am  154  ASP154     -0.1959
    112  CA        23.0820  120.4660   43.8390 C.3   154  ASP154      0.1840
    113  C         22.3350  119.8820   42.6400 C.2   154  ASP154      0.2622
    114  O         21.8800  118.7370   42.6830 O.2   154  ASP154     -0.2715
    115  CB        23.2730  119.3710   44.9050 C.3   154  ASP154      0.1450
    116  CG        24.0770  119.8390   46.0980 C.2   154  ASP154      0.3671
    117  OD1       25.2120  120.3250   45.9080 O.co2 154  ASP154     -0.2456
    118  OD2       23.6570  119.7460   47.2730 O.co2 154  ASP154     -0.2456
    119  N         22.2170  120.6610   41.5720 N.am  155  PHE155     -0.1960
    120  CA        21.6010  120.1760   40.3390 C.3   155  PHE155      0.1771
    121  C         22.6750  119.9400   39.2870 C.2   155  PHE155      0.2620
    122  O         23.7080  120.6120   39.2820 O.2   155  PHE155     -0.2715
    123  CB        20.5270  121.1470   39.8250 C.3   155  PHE155      0.0574
    124  CG        20.8770  122.5910   40.0140 C.ar  155  PHE155     -0.0200
    125  CD1       21.6210  123.2670   39.0570 C.ar  155  PHE155     -0.0042
    126  CD2       20.4740  123.2730   41.1540 C.ar  155  PHE155     -0.0042
    127  CE1       21.9560  124.5930   39.2330 C.ar  155  PHE155     -0.0003
    128  CE2       20.8070  124.6040   41.3360 C.ar  155  PHE155     -0.0003
    129  CZ        21.5500  125.2630   40.3740 C.ar  155  PHE155     -0.0000
    130  N         22.4240  118.9820   38.4000 N.am  156  GLY156     -0.1940
    131  CA        23.3980  118.5810   37.4030 C.3   156  GLY156      0.2014
    132  C         23.4880  119.5140   36.2150 C.2   156  GLY156      0.2639
    133  O         22.9600  119.2060   35.1430 O.2   156  GLY156     -0.2714
    134  N         24.1530  120.6540   36.4020 N.am  157  VAL157     -0.1963
    135  CA        24.3970  121.5750   35.2950 C.3   157  VAL157      0.1727
    136  C         25.4680  120.9990   34.3930 C.2   157  VAL157      0.2616
    137  O         25.4190  121.1660   33.1720 O.2   157  VAL157     -0.2715
    138  CB        24.8340  123.0000   35.7470 C.3   157  VAL157      0.0290
    139  CG1       23.6250  123.8370   36.1500 C.3   157  VAL157      0.0023
    140  CG2       25.8780  122.9520   36.8610 C.3   157  VAL157      0.0023
    141  N         26.4260  120.3150   35.0140 N.am  158  SER158     -0.1950
    142  CA        27.5620  119.7430   34.3120 C.3   158  SER158      0.1924
    143  C         27.2960  118.2880   33.9530 C.2   158  SER158      0.2314
    144  O         27.2400  117.4230   34.8330 O.2   158  SER158     -0.2863
    145  CB        28.8270  119.8650   35.1680 C.3   158  SER158      0.2116
    146  OG        29.8210  118.9450   34.7500 O.3   158  SER158     -0.2180
    147  N         30.2450  116.0950   34.9660 N.3   161  LEU161     -0.1231
    148  CA        30.4010  115.8900   36.4070 C.3   161  LEU161      0.1693
    149  C         29.6490  114.6260   36.8050 C.2   161  LEU161      0.2591
    150  O         30.1320  113.8270   37.6140 O.2   161  LEU161     -0.2718
    151  CB        29.8550  117.0750   37.2040 C.3   161  LEU161      0.0284
    152  CG        30.6440  117.5360   38.4340 C.3   161  LEU161      0.0019
    153  CD1       30.1840  118.9240   38.8450 C.3   161  LEU161      0.0001
    154  CD2       30.5130  116.5720   39.6070 C.3   161  LEU161      0.0001
    155  N         28.4550  114.4720   36.2300 N.am  162  ILE162     -0.1980
    156  CA        27.6190  113.2870   36.4050 C.3   162  ILE162      0.1595
    157  C         28.3760  112.0240   35.9750 C.2   162  ILE162      0.2287
    158  O         28.4420  111.0420   36.7290 O.2   162  ILE162     -0.2864
    159  CB        26.3010  113.4440   35.5960 C.3   162  ILE162      0.0276
    160  CG1       25.5360  114.6940   36.0510 C.3   162  ILE162      0.0022
    161  CG2       25.4350  112.1850   35.7040 C.3   162  ILE162      0.0022
    162  CD1       24.7120  115.3550   34.9550 C.3   162  ILE162      0.0001
    163  N         31.1190  110.8120   38.1060 N.3   165  MET165     -0.1245
    164  CA        30.6350  110.3110   39.3900 C.3   165  MET165      0.1570
    165  C         29.7640  109.0750   39.1900 C.2   165  MET165      0.2261
    166  O         29.8080  108.4350   38.1370 O.2   165  MET165     -0.2867
    167  CB        29.8480  111.3900   40.1350 C.3   165  MET165      0.0387
    168  CG        30.6990  112.5280   40.6920 C.3   165  MET165      0.0595
    169  SD        29.7730  113.7270   41.6960 S.3   165  MET165     -0.1393
    170  CE        28.2450  113.9210   40.7420 C.3   165  MET165      0.0692
@<TRIPOS>BOND
     1   137   136    2
     2   143   142    1
     3   143   144    2
     4   142   141    1
     5   142   145    1
     6   136   141   am
     7   136   135    1
     8    34    35    1
     9   146   145    1
    10   162   160    1
    11   147   148    1
    12   133   132    2
    13   135   138    1
    14   135   134    1
    15   159   161    1
    16   159   160    1
    17   159   156    1
    18   138   139    1
    19   138   140    1
    20    35    36    1
    21    35    38    1
    22    36    37    2
    23   157   156    1
    24   157   158    2
    25    42    43    1
    26   132   134   am
    27   132   131    1
    28   155   156    1
    29   155   149   am
    30   148   149    1
    31   148   151    1
    32   149   150    2
    33    38    39    1
    34   151   152    1
    35    43    44    1
    36    43    46    1
    37   131   130    1
    38    44    45    2
    39    39    40    1
    40    39    41    1
    41   163   164    1
    42   166   165    2
    43   130   121   am
    44   152   153    1
    45   152   154    1
    46    46    47    1
    47    47    48    1
    48    47    49    1
    49   125   127   ar
    50   125   124   ar
    51   165   164    1
    52   127   129   ar
    53   122   121    2
    54   121   120    1
    55   164   167    1
    56    69    71   ar
    57    69    67   ar
    58   123   124    1
    59   123   120    1
    60   124   126   ar
    61   167   168    1
    62    71    70   ar
    63    67    66   ar
    64   120   119    1
    65   129   128   ar
    66   168   169    1
    67   170   169    1
    68   126   128   ar
    69    88    89    1
    70    70    68   ar
    71    66    68   ar
    72    66    65    1
    73   119   113   am
    74    65    62    1
    75    79    77    1
    76    64    63    2
    77    77    76    1
    78    89    92    1
    79    89    90    1
    80   113   114    2
    81   113   112    1
    82    92    93    1
    83    63    62    1
    84    62    61    1
    85    61    59   am
    86    32    30    1
    87    90    91    2
    88    53    52    2
    89   112   111    1
    90   112   115    1
    91    76    78    1
    92    76    73    1
    93    93    95   ar
    94    93    94   ar
    95    29    28    2
    96   111   107   am
    97    30    31    1
    98    30    27    1
    99    73    72    1
   100    73    74    1
   101    33    31    1
   102   108   107    2
   103    59    58    1
   104    59    60    2
   105    50    51    1
   106   107   106    1
   107   115   116    1
   108    58    57    1
   109    52    57   am
   110    52    51    1
   111    28    27    1
   112   106   105    1
   113   106   109    1
   114    27    26    1
   115    51    54    1
   116    74    75    2
   117   117   116   ar
   118    25    24    1
   119   116   118   ar
   120    12    11    2
   121    54    55    1
   122    54    56    1
   123     4     3    2
   124    20    19    2
   125    84    81    1
   126    84    85    1
   127    96    97    1
   128   109   110    1
   129    81    80    1
   130    81    82    1
   131    10    11    1
   132    10     9    1
   133    24    23    1
   134   104   103    1
   135    11    13    1
   136    23    22    1
   137     3     9   am
   138     3     2    1
   139    21    22    1
   140    21    18    1
   141    86    85    1
   142    86    87    1
   143   102   101    1
   144   102   103    1
   145     5     2    1
   146     5     6    1
   147    19    18    1
   148   101   100    1
   149    97   100    1
   150    97    98    1
   151    82    83    2
   152    18    17    1
   153     2     1    1
   154    13    14    2
   155     6     7    2
   156     6     8   am
   157    14    15    1
   158    99    98    2
   159    15    16    2
