@<TRIPOS>MOLECULE
tmp/1s9pA00.pdb
 178 168 0 0 0
SMALL
GASTEIGER

@<TRIPOS>ATOM
      1  N         58.6310   26.2700   56.5550 N.3    33  LEU33      -0.1245
      2  CA        59.4860   27.4210   56.3270 C.3    33  LEU33       0.1561
      3  C         59.5070   27.8310   54.8530 C.2    33  LEU33       0.2260
      4  O         59.4840   29.0220   54.5270 O.2    33  LEU33      -0.2867
      5  CB        60.9040   27.1130   56.8110 C.3    33  LEU33       0.0270
      6  CG        61.0350   26.7730   58.3010 C.3    33  LEU33       0.0019
      7  CD1       62.4580   26.3380   58.5920 C.3    33  LEU33       0.0001
      8  CD2       60.6520   27.9810   59.1520 C.3    33  LEU33       0.0001
      9  N         56.2080   29.5390   54.2400 N.3    36  LEU36      -0.1231
     10  CA        56.1370   30.8560   54.8540 C.3    36  LEU36       0.1693
     11  C         56.9610   31.8660   54.0650 C.2    36  LEU36       0.2592
     12  O         56.5490   33.0130   53.9000 O.2    36  LEU36      -0.2718
     13  CB        56.6150   30.7860   56.3070 C.3    36  LEU36       0.0284
     14  CG        55.6680   30.0420   57.2560 C.3    36  LEU36       0.0019
     15  CD1       56.2820   29.9190   58.6350 C.3    36  LEU36       0.0001
     16  CD2       54.3450   30.7990   57.3410 C.3    36  LEU36       0.0001
     17  N         58.1130   31.4330   53.5580 N.am   37  CYS37      -0.1970
     18  CA        58.9810   32.3230   52.7920 C.3    37  CYS37       0.1712
     19  C         58.3840   32.6810   51.4410 C.2    37  CYS37       0.2296
     20  O         58.5570   33.8020   50.9590 O.2    37  CYS37      -0.2864
     21  CB        60.3620   31.6910   52.5940 C.3    37  CYS37       0.0983
     22  SG        61.3610   31.6570   54.0990 S.3    37  CYS37      -0.0798
     23  N         55.1570   32.7600   50.7970 N.3    39  LEU39      -0.1231
     24  CA        54.0360   33.6320   51.1300 C.3    39  LEU39       0.1693
     25  C         54.5770   35.0480   51.3330 C.2    39  LEU39       0.2591
     26  O         54.1430   36.0000   50.6830 O.2    39  LEU39      -0.2718
     27  CB        53.3540   33.1480   52.4140 C.3    39  LEU39       0.0284
     28  CG        52.3340   34.0940   53.0500 C.3    39  LEU39       0.0019
     29  CD1       51.2040   34.3830   52.0740 C.3    39  LEU39       0.0001
     30  CD2       51.7940   33.4750   54.3240 C.3    39  LEU39       0.0001
     31  N         55.5500   35.1780   52.2250 N.am   40  ALA40      -0.1980
     32  CA        56.1420   36.4800   52.5030 C.3    40  ALA40       0.1597
     33  C         56.6560   37.1310   51.2300 C.2    40  ALA40       0.2287
     34  O         56.4690   38.3250   51.0240 O.2    40  ALA40      -0.2864
     35  CB        57.2640   36.3360   53.4940 C.3    40  ALA40       0.0319
     36  N         53.8490   38.5330   49.5190 N.3    43  GLU43      -0.1245
     37  CA        53.2750   39.6640   50.2590 C.3    43  GLU43       0.1567
     38  C         54.1470   40.8980   50.0660 C.2    43  GLU43       0.2260
     39  O         53.6460   42.0210   49.9920 O.2    43  GLU43      -0.2867
     40  CB        53.1780   39.3710   51.7540 C.3    43  GLU43       0.0388
     41  CG        52.1640   38.3120   52.1240 C.3    43  GLU43       0.1160
     42  CD        52.0440   38.1350   53.6220 C.2    43  GLU43       0.3649
     43  OE1       51.2380   38.8480   54.2490 O.co2  43  GLU43      -0.2457
     44  OE2       52.7650   37.2870   54.1760 O.co2  43  GLU43      -0.2457
     45  N         59.5600   46.3300   56.2860 N.3    73  TRP73      -0.1227
     46  CA        58.7230   45.2740   55.6940 C.3    73  TRP73       0.1737
     47  C         58.2940   44.1860   56.6860 C.2    73  TRP73       0.2595
     48  O         57.1480   43.7360   56.6290 O.2    73  TRP73      -0.2718
     49  CB        59.4010   44.6560   54.4740 C.3    73  TRP73       0.0564
     50  CG        60.6400   43.8480   54.7710 C.ar   73  TRP73       0.0003
     51  CD1       61.9120   44.3210   54.7780 C.ar   73  TRP73       0.0946
     52  CD2       60.7300   42.4450   55.0810 C.ar   73  TRP73       0.0152
     53  NE1       62.7930   43.3150   55.0750 N.ar   73  TRP73      -0.2442
     54  CE2       62.0950   42.1520   55.2700 C.ar   73  TRP73       0.0810
     55  CE3       59.7900   41.4130   55.2270 C.ar   73  TRP73       0.0012
     56  CZ2       62.5540   40.8620   55.5810 C.ar   73  TRP73       0.0191
     57  CZ3       60.2510   40.1260   55.5380 C.ar   73  TRP73       0.0001
     58  CH2       61.6180   39.8690   55.7170 C.ar   73  TRP73       0.0015
     59  N         59.1870   43.7720   57.5760 N.am   74  MET74      -0.1979
     60  CA        58.8240   42.7220   58.5330 C.3    74  MET74       0.1605
     61  C         57.7670   43.1810   59.5520 C.2    74  MET74       0.2287
     62  O         56.9320   42.3960   59.9730 O.2    74  MET74      -0.2864
     63  CB        60.0660   42.1910   59.2350 C.3    74  MET74       0.0413
     64  CG        59.7870   41.0270   60.1610 C.3    74  MET74       0.0598
     65  SD        59.0610   39.6110   59.3270 S.3    74  MET74      -0.1393
     66  CE        60.5350   38.7500   58.7820 C.3    74  MET74       0.0692
     67  N         54.4990   42.9770   57.6360 N.3    77  LEU77      -0.1231
     68  CA        54.0560   41.5860   57.5090 C.3    77  LEU77       0.1693
     69  C         53.5130   41.0690   58.8450 C.2    77  LEU77       0.2591
     70  O         52.4260   40.5090   58.9060 O.2    77  LEU77      -0.2718
     71  CB        55.2140   40.6980   57.0580 C.3    77  LEU77       0.0284
     72  CG        55.7670   40.8540   55.6400 C.3    77  LEU77       0.0019
     73  CD1       56.7920   39.7360   55.3870 C.3    77  LEU77       0.0001
     74  CD2       54.6440   40.7660   54.6240 C.3    77  LEU77       0.0001
     75  N         54.2760   41.2630   59.9210 N.am   78  ILE78      -0.1980
     76  CA        53.8540   40.8110   61.2510 C.3    78  ILE78       0.1595
     77  C         52.5340   41.4450   61.7080 C.2    78  ILE78       0.2287
     78  O         51.6610   40.7570   62.2320 O.2    78  ILE78      -0.2864
     79  CB        54.9360   41.1080   62.3220 C.3    78  ILE78       0.0276
     80  CG1       56.1790   40.2450   62.0780 C.3    78  ILE78       0.0022
     81  CG2       54.3690   40.8710   63.7220 C.3    78  ILE78       0.0022
     82  CD1       55.9480   38.7650   62.2620 C.3    78  ILE78       0.0001
     83  N         49.7450   39.5970   60.1000 N.3    81  VAL81      -0.1245
     84  CA        49.4920   38.3090   60.7470 C.3    81  VAL81       0.1561
     85  C         48.7670   38.5210   62.0640 C.2    81  VAL81       0.2260
     86  O         47.7810   37.8410   62.3650 O.2    81  VAL81      -0.2867
     87  CB        50.7990   37.5450   61.0230 C.3    81  VAL81       0.0252
     88  CG1       50.5010   36.2350   61.7350 C.3    81  VAL81       0.0019
     89  CG2       51.5000   37.2610   59.7250 C.3    81  VAL81       0.0019
     90  N         45.0770   39.4900   61.5930 N.3    84  ARG84      -0.1245
     91  CA        44.2920   38.3520   61.1140 C.3    84  ARG84       0.1563
     92  C         44.0750   37.2990   62.1980 C.2    84  ARG84       0.2260
     93  O         43.2040   36.4340   62.0670 O.2    84  ARG84      -0.2867
     94  CB        44.9810   37.6870   59.9180 C.3    84  ARG84       0.0307
     95  CG        45.0670   38.5430   58.6440 C.3    84  ARG84       0.0489
     96  CD        45.5130   37.6940   57.4570 C.3    84  ARG84       0.2205
     97  NE        46.9210   37.2840   57.5480 N.pl3  84  ARG84      -0.0865
     98  CZ        47.9580   38.0530   57.2080 C.cat  84  ARG84       0.5346
     99  NH1       47.7640   39.2900   56.7590 N.pl3  84  ARG84       0.1354
    100  NH2       49.1910   37.5740   57.3020 N.pl3  84  ARG84       0.1354
    101  N         48.6310   33.1270   59.2760 N.3    94  TYR94      -0.1241
    102  CA        49.5660   33.6460   58.2900 C.3    94  TYR94       0.1605
    103  C         48.8030   33.8770   56.9870 C.2    94  TYR94       0.2264
    104  O         49.0850   34.8090   56.2390 O.2    94  TYR94      -0.2867
    105  CB        50.7230   32.6690   58.0980 C.3    94  TYR94       0.0534
    106  CG        51.7760   32.8290   59.1720 C.ar   94  TYR94      -0.0201
    107  CD1       52.6950   33.8770   59.1160 C.ar   94  TYR94      -0.0009
    108  CD2       51.8010   31.9910   60.2870 C.ar   94  TYR94      -0.0009
    109  CE1       53.6140   34.0940   60.1490 C.ar   94  TYR94       0.0417
    110  CE2       52.7180   32.1980   61.3300 C.ar   94  TYR94       0.0417
    111  CZ        53.6180   33.2520   61.2500 C.ar   94  TYR94       0.1957
    112  OH        54.5160   33.4740   62.2680 O.3    94  TYR94      -0.2866
    113  N         59.2090   27.1480   65.1060 N.3   110  LEU110     -0.1245
    114  CA        58.8000   28.5410   65.2060 C.3   110  LEU110      0.1561
    115  C         58.0380   28.8270   66.4920 C.2   110  LEU110      0.2260
    116  O         57.3520   29.8430   66.5980 O.2   110  LEU110     -0.2867
    117  CB        57.9330   28.8990   64.0010 C.3   110  LEU110      0.0270
    118  CG        58.6870   28.9540   62.6730 C.3   110  LEU110      0.0019
    119  CD1       57.7340   28.7110   61.5220 C.3   110  LEU110      0.0001
    120  CD2       59.3780   30.3060   62.5470 C.3   110  LEU110      0.0001
    121  N         59.3030   32.2190   68.2520 N.3   113  LEU113     -0.1231
    122  CA        58.8820   33.3580   67.4510 C.3   113  LEU113      0.1693
    123  C         57.3570   33.5000   67.4130 C.2   113  LEU113      0.2592
    124  O         56.8270   34.5890   67.6250 O.2   113  LEU113     -0.2718
    125  CB        59.4490   33.2260   66.0380 C.3   113  LEU113      0.0284
    126  CG        59.1140   34.3740   65.0930 C.3   113  LEU113      0.0019
    127  CD1       59.5480   35.6990   65.7160 C.3   113  LEU113      0.0001
    128  CD2       59.8050   34.1350   63.7650 C.3   113  LEU113      0.0001
    129  N         56.6470   32.4050   67.1590 N.am  114  ASN114     -0.1974
    130  CA        55.1930   32.4840   67.1070 C.3   114  ASN114      0.1688
    131  C         54.6050   32.8640   68.4530 C.2   114  ASN114      0.2292
    132  O         53.5700   33.5160   68.5010 O.2   114  ASN114     -0.2864
    133  CB        54.5810   31.1790   66.5900 C.3   114  ASN114      0.1181
    134  CG        54.6920   31.0570   65.0860 C.2   114  ASN114      0.2629
    135  OD1       55.0950   32.0080   64.4090 O.2   114  ASN114     -0.2716
    136  ND2       54.3310   29.8980   64.5510 N.am  114  ASN114     -0.0877
    137  N         55.0050   36.5880   68.6840 N.3   117  ILE117     -0.1245
    138  CA        53.9820   37.2400   67.8640 C.3   117  ILE117      0.1561
    139  C         52.6180   37.1680   68.5660 C.2   117  ILE117      0.2260
    140  O         51.8080   38.0950   68.4690 O.2   117  ILE117     -0.2867
    141  CB        53.9160   36.5980   66.4530 C.3   117  ILE117      0.0252
    142  CG1       55.2160   36.9030   65.6990 C.3   117  ILE117      0.0019
    143  CG2       52.7310   37.1430   65.6610 C.3   117  ILE117      0.0019
    144  CD1       55.4070   36.0760   64.4310 C.3   117  ILE117      0.0001
    145  N         62.0960   38.1980   64.4370 N.3   199  ALA199     -0.1245
    146  CA        61.7000   37.4290   63.2640 C.3   199  ALA199      0.1562
    147  C         62.7820   37.4990   62.1970 C.2   199  ALA199      0.2260
    148  O         63.1390   36.4840   61.5900 O.2   199  ALA199     -0.2867
    149  CB        60.3780   37.9490   62.7000 C.3   199  ALA199      0.0290
    150  N         65.6190   35.4040   63.0020 N.3   202  HIS202     -0.1226
    151  CA        65.2800   33.9930   62.8710 C.3   202  HIS202      0.1752
    152  C         65.3930   33.5950   61.3900 C.2   202  HIS202      0.2596
    153  O         65.9450   32.5450   61.0570 O.2   202  HIS202     -0.2718
    154  CB        63.8580   33.7600   63.3810 C.3   202  HIS202      0.0759
    155  CG        63.5130   32.2890   63.5920 C.ar  202  HIS202      0.0818
    156  ND1       63.3040   31.4090   62.5500 N.ar  202  HIS202     -0.2268
    157  CD2       63.3240   31.5770   64.7280 C.ar  202  HIS202      0.1154
    158  CE1       62.9970   30.2200   63.0370 C.ar  202  HIS202      0.1986
    159  NE2       63.0020   30.2950   64.3560 N.ar  202  HIS202     -0.2212
    160  N         64.8470   34.4550   60.5440 N.am  203  PHE203     -0.1976
    161  CA        64.8640   34.2660   59.1030 C.3   203  PHE203      0.1639
    162  C         66.2920   34.2100   58.5760 C.2   203  PHE203      0.2290
    163  O         66.5270   33.8330   57.4240 O.2   203  PHE203     -0.2864
    164  CB        64.1290   35.4170   58.4480 C.3   203  PHE203      0.0560
    165  CG        64.0430   35.3520   56.9500 C.ar  203  PHE203     -0.0200
    166  CD1       63.5100   34.2420   56.3010 C.ar  203  PHE203     -0.0042
    167  CD2       64.4890   36.4270   56.1840 C.ar  203  PHE203     -0.0042
    168  CE1       63.4180   34.2070   54.9120 C.ar  203  PHE203     -0.0003
    169  CE2       64.4010   36.4030   54.7970 C.ar  203  PHE203     -0.0003
    170  CZ        63.8620   35.2890   54.1580 C.ar  203  PHE203     -0.0000
    171  N         68.2840   30.5950   59.7650 N.3   206  ILE206     -0.1245
    172  CA        67.8100   29.4810   58.9150 C.3   206  ILE206      0.1561
    173  C         68.2260   29.6420   57.4450 C.2   206  ILE206      0.2260
    174  O         68.6740   28.6740   56.8130 O.2   206  ILE206     -0.2867
    175  CB        66.2540   29.2950   58.9830 C.3   206  ILE206      0.0252
    176  CG1       65.5310   30.4510   58.2950 C.3   206  ILE206      0.0019
    177  CG2       65.8090   29.1710   60.4270 C.3   206  ILE206      0.0019
    178  CD1       64.9050   30.0650   56.9700 C.3   206  ILE206      0.0001
@<TRIPOS>BOND
     1    36    37    1
     2    39    38    2
     3    38    37    1
     4    37    40    1
     5    26    25    2
     6    23    24    1
     7    20    19    2
     8    34    33    2
     9    24    25    1
    10    24    27    1
    11    33    32    1
    12    25    31   am
    13    19    18    1
    14    40    41    1
    15    29    28    1
    16    41    42    1
    17    31    32    1
    18    27    28    1
    19    32    35    1
    20    21    18    1
    21    21    22    1
    22    18    17    1
    23    28    30    1
    24    17    11   am
    25    42    44   ar
    26    42    43   ar
    27    12    11    2
    28    11    10    1
    29   170   169   ar
    30   170   168   ar
    31     9    10    1
    32    49    50    1
    33    49    46    1
    34     4     3    2
    35    74    72    1
    36    50    51   ar
    37    50    52   ar
    38    51    53   ar
    39   169   167   ar
    40     3     2    1
    41    10    13    1
    42   168   166   ar
    43    53    54   ar
    44    52    55   ar
    45    52    54   ar
    46    55    57   ar
    47    54    56   ar
    48    73    72    1
    49    57    58   ar
    50    56    58   ar
    51    72    71    1
    52    46    45    1
    53    46    47    1
    54   167   165   ar
    55   104   103    2
    56   166   165   ar
    57    13    14    1
    58     2     1    1
    59     2     5    1
    60    48    47    2
    61    47    59   am
    62    99    98    1
    63     5     6    1
    64   174   173    2
    65   165   164    1
    66   178   176    1
    67   103   102    1
    68    71    68    1
    69    98   100    1
    70    98    97    2
    71    14    16    1
    72    14    15    1
    73   163   162    2
    74   173   172    1
    75    96    97    1
    76    96    95    1
    77    68    67    1
    78    68    69    1
    79    59    60    1
    80   105   102    1
    81   105   106    1
    82   102   101    1
    83   176   175    1
    84     6     7    1
    85     6     8    1
    86   164   161    1
    87    60    63    1
    88    60    61    1
    89   162   161    1
    90    95    94    1
    91    66    65    1
    92    69    70    2
    93    69    75   am
    94   172   175    1
    95   172   171    1
    96   175   177    1
    97   161   160    1
    98   107   106   ar
    99   107   109   ar
   100   106   108   ar
   101    63    64    1
   102    65    64    1
   103    61    62    2
   104    89    87    1
   105    94    91    1
   106    75    76    1
   107    83    84    1
   108   109   111   ar
   109   108   110   ar
   110   160   152   am
   111    84    87    1
   112    84    85    1
   113    87    88    1
   114   153   152    2
   115    91    90    1
   116    91    92    1
   117   111   110   ar
   118   111   112    1
   119    76    77    1
   120    76    79    1
   121   152   151    1
   122   119   118    1
   123   148   147    2
   124    77    78    2
   125    85    86    2
   126    93    92    2
   127    80    82    1
   128    80    79    1
   129   147   146    1
   130    79    81    1
   131   120   118    1
   132   156   158   ar
   133   156   155   ar
   134   118   117    1
   135   149   146    1
   136   151   150    1
   137   151   154    1
   138   158   159   ar
   139   146   145    1
   140   154   155    1
   141   155   157   ar
   142   128   126    1
   143   117   114    1
   144   159   157   ar
   145   135   134    2
   146   144   142    1
   147   136   134   am
   148   134   133    1
   149   126   127    1
   150   126   125    1
   151   113   114    1
   152   114   115    1
   153   143   141    1
   154   142   141    1
   155   125   122    1
   156   141   138    1
   157   115   116    2
   158   133   130    1
   159   130   129    1
   160   130   131    1
   161   129   123   am
   162   123   122    1
   163   123   124    2
   164   122   121    1
   165   138   139    1
   166   138   137    1
   167   131   132    2
   168   140   139    2
