@<TRIPOS>MOLECULE
tmp/1s9rB00.pdb
 127 118 0 0 0
SMALL
GASTEIGER

@<TRIPOS>ATOM
      1  N         30.1700   34.1790  -22.7770 N.3    43  LEU43      -0.1245
      2  CA        31.2540   34.4470  -23.7310 C.3    43  LEU43       0.1561
      3  C         32.0140   35.7600  -23.4890 C.2    43  LEU43       0.2260
      4  O         32.3200   36.4880  -24.4230 O.2    43  LEU43      -0.2867
      5  CB        30.7260   34.3650  -25.2000 C.3    43  LEU43       0.0270
      6  CG        29.8380   33.1250  -25.4960 C.3    43  LEU43       0.0019
      7  CD1       29.2910   33.1970  -26.9590 C.3    43  LEU43       0.0001
      8  CD2       30.6450   31.8040  -25.2870 C.3    43  LEU43       0.0001
      9  N         26.0510   39.5680  -26.1980 N.3   154  ASN154     -0.1240
     10  CA        26.9640   39.6960  -27.3050 C.3   154  ASN154      0.1653
     11  C         26.4290   40.4540  -28.5140 C.2   154  ASN154      0.2266
     12  O         27.0880   40.5460  -29.5580 O.2   154  ASN154     -0.2867
     13  CB        27.4140   38.2970  -27.7370 C.3   154  ASN154      0.1155
     14  CG        28.1920   37.5950  -26.6610 C.2   154  ASN154      0.2627
     15  OD1       29.3630   37.8960  -26.4610 O.2   154  ASN154     -0.2716
     16  ND2       27.5460   36.6630  -25.9360 N.am  154  ASN154     -0.0877
     17  N         28.4030   42.7110  -30.8460 N.3   157  PHE157     -0.1241
     18  CA        29.2980   42.1360  -31.8600 C.3   157  PHE157      0.1605
     19  C         28.4510   41.7830  -33.1070 C.2   157  PHE157      0.2264
     20  O         28.2170   40.6260  -33.4110 O.2   157  PHE157     -0.2867
     21  CB        30.0110   40.9090  -31.2670 C.3   157  PHE157      0.0534
     22  CG        31.0150   41.2750  -30.1940 C.ar  157  PHE157     -0.0203
     23  CD1       30.8580   40.8470  -28.8670 C.ar  157  PHE157     -0.0042
     24  CD2       32.0960   42.0880  -30.5000 C.ar  157  PHE157     -0.0042
     25  CE1       31.8010   41.2250  -27.8600 C.ar  157  PHE157     -0.0003
     26  CE2       33.0430   42.4720  -29.4790 C.ar  157  PHE157     -0.0003
     27  CZ        32.8830   42.0260  -28.1740 C.ar  157  PHE157     -0.0000
     28  N         29.1270   41.7320  -36.0950 N.3   159  ARG159     -0.1231
     29  CA        29.8140   41.0240  -37.1470 C.3   159  ARG159      0.1694
     30  C         29.3200   39.6030  -37.3000 C.2   159  ARG159      0.2592
     31  O         29.3510   39.0160  -38.4080 O.2   159  ARG159     -0.2718
     32  CB        31.3060   40.9350  -36.7490 C.3   159  ARG159      0.0321
     33  CG        32.2020   40.0050  -37.6040 C.3   159  ARG159      0.0489
     34  CD        32.2750   40.4050  -39.1200 C.3   159  ARG159      0.2205
     35  NE        32.6270   41.8160  -39.2730 N.pl3 159  ARG159     -0.0865
     36  CZ        32.9500   42.3920  -40.4240 C.cat 159  ARG159      0.5346
     37  NH1       32.9780   41.6630  -41.5480 N.pl3 159  ARG159      0.1354
     38  NH2       33.2350   43.6880  -40.4520 N.pl3 159  ARG159      0.1354
     39  N         28.8300   39.0490  -36.1900 N.am  160  ASP160     -0.1974
     40  CA        28.6190   37.6000  -36.1820 C.3   160  ASP160      0.1709
     41  C         27.3010   36.8950  -36.5850 C.2   160  ASP160      0.2293
     42  O         27.3640   35.8260  -37.1860 O.2   160  ASP160     -0.2864
     43  CB        29.1090   37.1180  -34.8050 C.3   160  ASP160      0.1436
     44  CG        30.5900   37.4270  -34.5850 C.2   160  ASP160      0.3671
     45  OD1       31.4150   37.1300  -35.4790 O.co2 160  ASP160     -0.2456
     46  OD2       30.9130   37.9660  -33.5050 O.co2 160  ASP160     -0.2456
     47  N         24.1420   33.1670  -28.3640 N.3   179  ARG179     -0.1245
     48  CA        24.2390   33.9940  -29.5680 C.3   179  ARG179      0.1563
     49  C         23.2570   33.6120  -30.6690 C.2   179  ARG179      0.2260
     50  O         22.8610   34.4620  -31.4470 O.2   179  ARG179     -0.2867
     51  CB        25.6730   34.0250  -30.1280 C.3   179  ARG179      0.0307
     52  CG        26.6000   34.6550  -29.0760 C.3   179  ARG179      0.0489
     53  CD        27.7810   35.3450  -29.7880 C.3   179  ARG179      0.2205
     54  NE        27.2360   36.5020  -30.5080 N.pl3 179  ARG179     -0.0865
     55  CZ        27.9630   37.3240  -31.2590 C.cat 179  ARG179      0.5346
     56  NH1       29.2820   37.1140  -31.3720 N.pl3 179  ARG179      0.1354
     57  NH2       27.3640   38.3010  -31.9420 N.pl3 179  ARG179      0.1354
     58  N         32.3110   36.3760  -37.9710 N.3   214  GLY214     -0.1225
     59  CA        33.7220   36.7070  -37.7940 C.3   214  GLY214      0.1811
     60  C         34.6290   35.8640  -38.6740 C.2   214  GLY214      0.2280
     61  O         35.7960   36.1890  -38.9060 O.2   214  GLY214     -0.2866
     62  N         34.3080   28.4250  -34.1000 N.3   231  ARG231     -0.1245
     63  CA        32.8810   28.7080  -34.3860 C.3   231  ARG231      0.1563
     64  C         32.3070   28.2820  -35.7230 C.2   231  ARG231      0.2260
     65  O         31.0640   28.2320  -35.8870 O.2   231  ARG231     -0.2867
     66  CB        32.5700   30.2200  -34.2450 C.3   231  ARG231      0.0307
     67  CG        32.9110   30.8060  -32.8660 C.3   231  ARG231      0.0489
     68  CD        31.9550   30.2860  -31.8120 C.3   231  ARG231      0.2205
     69  NE        32.3120   30.7900  -30.4980 N.pl3 231  ARG231     -0.0865
     70  CZ        31.9690   31.9810  -30.0250 C.cat 231  ARG231      0.5346
     71  NH1       31.2280   32.8270  -30.7420 N.pl3 231  ARG231      0.1354
     72  NH2       32.4350   32.3280  -28.8100 N.pl3 231  ARG231      0.1354
     73  N         38.1150   33.1330  -31.3210 N.3   267  MET267     -0.1230
     74  CA        37.1600   32.1860  -31.8820 C.3   267  MET267      0.1702
     75  C         36.7930   32.2420  -33.3290 C.2   267  MET267      0.2592
     76  O         36.1050   31.3500  -33.8130 O.2   267  MET267     -0.2718
     77  CB        35.8850   32.2360  -31.0010 C.3   267  MET267      0.0401
     78  CG        34.9570   33.4300  -31.2400 C.3   267  MET267      0.0596
     79  SD        35.6960   35.0470  -30.7360 S.3   267  MET267     -0.1393
     80  CE        35.6260   34.8610  -28.9060 C.3   267  MET267      0.0692
     81  N         37.2370   33.2870  -34.0170 N.am  268  HIS268     -0.1976
     82  CA        36.9300   33.4600  -35.4390 C.3   268  HIS268      0.1656
     83  C         38.2280   33.7490  -36.2130 C.2   268  HIS268      0.2291
     84  O         39.2300   34.2050  -35.6440 O.2   268  HIS268     -0.2864
     85  CB        35.9980   34.6580  -35.6420 C.3   268  HIS268      0.0771
     86  CG        34.6570   34.5360  -34.9710 C.ar  268  HIS268      0.0820
     87  ND1       34.2040   35.4410  -34.0380 N.ar  268  HIS268     -0.2267
     88  CD2       33.6510   33.6400  -35.1370 C.ar  268  HIS268      0.1154
     89  CE1       32.9850   35.1090  -33.6490 C.ar  268  HIS268      0.1986
     90  NE2       32.6220   34.0160  -34.3000 N.ar  268  HIS268     -0.2212
     91  N         38.9120   36.1840  -38.0530 N.3   270  ASP270     -0.1225
     92  CA        39.2840   37.5930  -37.9670 C.3   270  ASP270      0.1805
     93  C         40.0130   37.9880  -36.6950 C.2   270  ASP270      0.2598
     94  O         40.3210   39.1970  -36.5060 O.2   270  ASP270     -0.2718
     95  CB        38.0770   38.5080  -38.2700 C.3   270  ASP270      0.1424
     96  CG        37.0110   38.4710  -37.2000 C.2   270  ASP270      0.3668
     97  OD1       37.1400   37.7210  -36.1880 O.co2 270  ASP270     -0.2456
     98  OD2       36.0390   39.2510  -37.3880 O.co2 270  ASP270     -0.2456
     99  N         40.2550   37.0010  -35.8020 N.am  271  THR271     -0.1953
    100  CA        41.0820   37.2180  -34.6110 C.3   271  THR271      0.1897
    101  C         42.5150   36.6860  -34.8460 C.2   271  THR271      0.2313
    102  O         43.3800   36.7560  -33.9900 O.2   271  THR271     -0.2863
    103  CB        40.4280   36.6210  -33.3140 C.3   271  THR271      0.1794
    104  OG1       40.4680   35.1890  -33.3390 O.3   271  THR271     -0.2208
    105  CG2       39.0110   37.0860  -33.1960 C.3   271  THR271      0.0378
    106  N         34.9270   41.8350  -24.0890 N.3   391  GLY391     -0.1210
    107  CA        34.0330   40.8920  -24.7380 C.3   391  GLY391      0.1956
    108  C         34.7350   40.0630  -25.8070 C.2   391  GLY391      0.2612
    109  O         34.0930   39.2670  -26.4630 O.2   391  GLY391     -0.2717
    110  N         36.0490   40.2350  -25.9880 N.am  392  MET392     -0.1965
    111  CA        36.8400   39.4570  -26.9340 C.3   392  MET392      0.1736
    112  C         36.5290   39.7080  -28.3960 C.2   392  MET392      0.2617
    113  O         36.4250   38.8010  -29.2050 O.2   392  MET392     -0.2715
    114  CB        36.8240   37.9580  -26.5910 C.3   392  MET392      0.0427
    115  CG        37.0540   37.7190  -25.0490 C.3   392  MET392      0.0599
    116  SD        37.0970   35.9520  -24.6390 S.3   392  MET392     -0.1393
    117  CE        35.4680   35.4330  -24.9740 C.3   392  MET392      0.0692
    118  N         36.3300   40.9890  -28.7080 N.am  393  GLY393     -0.1955
    119  CA        36.2340   41.3660  -30.1160 C.3   393  GLY393      0.1869
    120  C         36.7610   42.7970  -30.2030 C.2   393  GLY393      0.2309
    121  O         36.7700   43.4780  -29.1720 O.2   393  GLY393     -0.2863
    122  N         34.7180   43.0320  -35.2500 N.3   397  CYS397     -0.1235
    123  CA        33.6890   42.2610  -34.5640 C.3   397  CYS397      0.1677
    124  C         32.4640   43.0860  -34.2430 C.2   397  CYS397      0.2270
    125  O         31.3610   42.5290  -34.1640 O.2   397  CYS397     -0.2867
    126  CB        34.2230   41.6740  -33.2600 C.3   397  CYS397      0.0956
    127  SG        35.4830   40.3690  -33.5220 S.3   397  CYS397     -0.0801
@<TRIPOS>BOND
     1    37    36    1
     2    38    36    1
     3    36    35    2
     4    35    34    1
     5    34    33    1
     6    61    60    2
     7    60    59    1
     8    31    30    2
     9    95    92    1
    10    95    96    1
    11    91    92    1
    12    58    59    1
    13    92    93    1
    14    33    32    1
    15    98    96   ar
    16    30    29    1
    17    30    39   am
    18    96    97   ar
    19    42    41    2
    20    29    32    1
    21    29    28    1
    22    93    94    2
    23    93    99   am
    24    41    40    1
    25    83    84    2
    26    83    82    1
    27    39    40    1
    28    40    43    1
    29    65    64    2
    30    99   100    1
    31    64    63    1
    32    85    82    1
    33    85    86    1
    34    45    44   ar
    35    82    81    1
    36   122   123    1
    37    88    86   ar
    38    88    90   ar
    39    86    87   ar
    40   101   100    1
    41   101   102    2
    42    43    44    1
    43   100   103    1
    44    44    46   ar
    45   123   124    1
    46   123   126    1
    47    63    66    1
    48    63    62    1
    49    90    89   ar
    50    66    67    1
    51   124   125    2
    52    87    89   ar
    53    81    75   am
    54    76    75    2
    55   127   126    1
    56    20    19    2
    57   104   103    1
    58    75    74    1
    59   103   105    1
    60    19    18    1
    61    67    68    1
    62    57    55    1
    63    74    73    1
    64    74    77    1
    65    18    21    1
    66    18    17    1
    67    68    69    1
    68    50    49    2
    69    56    55    1
    70    21    22    1
    71    55    54    2
    72    78    77    1
    73    78    79    1
    74    71    70    1
    75    79    80    1
    76    49    48    1
    77    54    53    1
    78    24    22   ar
    79    24    26   ar
    80    69    70    2
    81   120   119    1
    82   120   121    2
    83    22    23   ar
    84    51    48    1
    85    51    52    1
    86   119   118    1
    87    70    72    1
    88    53    52    1
    89    48    47    1
    90    12    11    2
    91    26    27   ar
    92   113   112    2
    93    23    25   ar
    94   118   112   am
    95    11    10    1
    96   112   111    1
    97    27    25   ar
    98    13    10    1
    99    13    14    1
   100    10     9    1
   101     7     6    1
   102   111   114    1
   103   111   110    1
   104    14    15    2
   105    14    16   am
   106   114   115    1
   107   109   108    2
   108   110   108   am
   109   108   107    1
   110     6     8    1
   111     6     5    1
   112     5     2    1
   113   115   116    1
   114   117   116    1
   115   107   106    1
   116     4     3    2
   117     2     3    1
   118     2     1    1
