@<TRIPOS>MOLECULE
tmp/1s9tB00.pdb
 126 120 0 0 0
SMALL
GASTEIGER

@<TRIPOS>ATOM
      1  N          9.0400   13.6430    8.3320 N.3    59  TYR59      -0.1241
      2  CA        10.4880   13.5140    8.3890 C.3    59  TYR59       0.1605
      3  C         10.8520   12.1750    7.7730 C.2    59  TYR59       0.2264
      4  O         11.6340   12.1040    6.8280 O.2    59  TYR59      -0.2867
      5  CB        10.9830   13.5880    9.8320 C.3    59  TYR59       0.0534
      6  CG        11.0840   15.0060   10.3400 C.ar   59  TYR59      -0.0201
      7  CD1        9.9820   15.6640   10.8970 C.ar   59  TYR59      -0.0009
      8  CD2       12.2890   15.6980   10.2480 C.ar   59  TYR59      -0.0009
      9  CE1       10.0890   16.9780   11.3510 C.ar   59  TYR59       0.0417
     10  CE2       12.4030   17.0100   10.6960 C.ar   59  TYR59       0.0417
     11  CZ        11.3050   17.6390   11.2420 C.ar   59  TYR59       0.1957
     12  OH        11.4430   18.9410   11.6590 O.3    59  TYR59      -0.2866
     13  N         16.7140   19.3890    9.5190 N.3    87  PRO87      -0.2102
     14  CA        17.1080   18.8670   10.8310 C.3    87  PRO87       0.1504
     15  C         16.7240   17.3940   10.8120 C.2    87  PRO87       0.2576
     16  O         15.8060   16.9610   11.5020 O.2    87  PRO87      -0.2718
     17  CB        16.2760   19.6990   11.7980 C.3    87  PRO87       0.0282
     18  CG        15.0210   19.9920   11.0020 C.3    87  PRO87       0.0208
     19  CD        15.5530   20.2930    9.6250 C.3    87  PRO87       0.0893
     20  N         17.4380   16.6410    9.9780 N.am   88  LEU88      -0.1966
     21  CA        17.1930   15.2190    9.7880 C.3    88  LEU88       0.1728
     22  C         18.1520   14.3980   10.6340 C.2    88  LEU88       0.2616
     23  O         19.3550   14.3890   10.3870 O.2    88  LEU88      -0.2715
     24  CB        17.3600   14.8670    8.3040 C.3    88  LEU88       0.0311
     25  CG        16.9320   13.4710    7.8350 C.3    88  LEU88       0.0022
     26  CD1       15.4120   13.3240    7.9630 C.3    88  LEU88       0.0001
     27  CD2       17.3600   13.2660    6.3850 C.3    88  LEU88       0.0001
     28  N         17.6080   13.6960   11.6230 N.am   89  ALA89      -0.1977
     29  CA        18.4160   12.8880   12.5280 C.3    89  ALA89       0.1597
     30  C         19.0600   11.6950   11.8390 C.2    89  ALA89       0.2287
     31  O         18.4140   10.9720   11.0760 O.2    89  ALA89      -0.2864
     32  CB        17.5580   12.4120   13.7080 C.3    89  ALA89       0.0319
     33  N         17.5760    4.5030    9.5200 N.3    94  ARG94      -0.1245
     34  CA        17.5740    5.2930    8.3040 C.3    94  ARG94       0.1563
     35  C         18.8180    4.9970    7.4780 C.2    94  ARG94       0.2260
     36  O         18.7380    4.9400    6.2530 O.2    94  ARG94      -0.2867
     37  CB        17.4820    6.7840    8.6340 C.3    94  ARG94       0.0307
     38  CG        16.0890    7.2110    9.0440 C.3    94  ARG94       0.0489
     39  CD        16.0590    8.6600    9.5130 C.3    94  ARG94       0.2205
     40  NE        14.6940    9.1120    9.7770 N.pl3  94  ARG94      -0.0865
     41  CZ        14.3860   10.2720   10.3540 C.cat  94  ARG94       0.5346
     42  NH1       15.3490   11.1070   10.7370 N.pl3  94  ARG94       0.1354
     43  NH2       13.1110   10.6050   10.5310 N.pl3  94  ARG94       0.1354
     44  N          6.1870   13.9500   17.5050 N.3   136  VAL136     -0.1245
     45  CA         5.6710   14.1250   16.1580 C.3   136  VAL136      0.1561
     46  C          5.5990   12.7260   15.5280 C.2   136  VAL136      0.2260
     47  O          6.4760   11.8840   15.7460 O.2   136  VAL136     -0.2867
     48  CB         6.5770   15.0810   15.3110 C.3   136  VAL136      0.0252
     49  CG1        7.9430   14.4640   15.0660 C.3   136  VAL136      0.0019
     50  CG2        5.8830   15.4120   13.9840 C.3   136  VAL136      0.0019
     51  N          8.6290   10.4140   13.0140 N.3   139  GLY139     -0.1210
     52  CA         9.8970   11.0970   13.2090 C.3   139  GLY139      0.1956
     53  C         10.8670   10.1910   13.9520 C.2   139  GLY139      0.2612
     54  O         10.4860    9.0960   14.3840 O.2   139  GLY139     -0.2717
     55  N         12.1070   10.6460   14.1190 N.am  140  ALA140     -0.1965
     56  CA        13.1240    9.8600   14.8030 C.3   140  ALA140      0.1728
     57  C         12.8170    9.6570   16.2880 C.2   140  ALA140      0.2617
     58  O         13.1060    8.5890   16.8450 O.2   140  ALA140     -0.2715
     59  CB        14.4930   10.5200   14.6320 C.3   140  ALA140      0.0334
     60  N         12.2340   10.6670   16.9290 N.am  141  THR141     -0.1937
     61  CA        11.9070   10.5490   18.3460 C.3   141  THR141      0.2028
     62  C         10.8870    9.4180   18.5600 C.2   141  THR141      0.2642
     63  O         11.0810    8.5550   19.4150 O.2   141  THR141     -0.2714
     64  CB        11.3830   11.8940   18.8920 C.3   141  THR141      0.1808
     65  OG1       12.4550   12.8420   18.8720 O.3   141  THR141     -0.2208
     66  CG2       10.8640   11.7600   20.3230 C.3   141  THR141      0.0379
     67  N          9.8160    9.4200   17.7740 N.am  142  MET142     -0.1976
     68  CA         8.7930    8.3870   17.8900 C.3   142  MET142      0.1605
     69  C          9.4350    7.0120   17.6860 C.2   142  MET142      0.2287
     70  O          9.2070    6.0830   18.4670 O.2   142  MET142     -0.2864
     71  CB         7.7090    8.6080   16.8340 C.3   142  MET142      0.0413
     72  CG         6.5430    7.6380   16.9170 C.3   142  MET142      0.0598
     73  SD         5.7720    7.4070   15.3100 S.3   142  MET142     -0.1393
     74  CE         6.7390    6.0240   14.7020 C.3   142  MET142      0.0692
     75  N          6.0470   19.2650   14.9390 N.3   172  ASN172     -0.1240
     76  CA         6.5700   19.6370   16.2390 C.3   172  ASN172      0.1653
     77  C          5.8990   20.9070   16.7240 C.2   172  ASN172      0.2266
     78  O          5.7190   21.1040   17.9310 O.2   172  ASN172     -0.2867
     79  CB         8.0830   19.8260   16.1750 C.3   172  ASN172      0.1155
     80  CG         8.8170   18.5080   16.1070 C.2   172  ASN172      0.2627
     81  OD1        8.5630   17.6090   16.9090 O.2   172  ASN172     -0.2716
     82  ND2        9.7290   18.3820   15.1530 N.am  172  ASN172     -0.0877
     83  N          7.8920   15.2310   23.6220 N.3   187  LEU187     -0.1231
     84  CA         9.2040   14.6400   23.4240 C.3   187  LEU187      0.1693
     85  C          9.7470   15.0980   22.0750 C.2   187  LEU187      0.2592
     86  O          9.1730   14.8050   21.0250 O.2   187  LEU187     -0.2718
     87  CB         9.1010   13.1140   23.4650 C.3   187  LEU187      0.0284
     88  CG         9.0090   12.4110   24.8300 C.3   187  LEU187      0.0019
     89  CD1       10.3650   12.4680   25.5080 C.3   187  LEU187      0.0001
     90  CD2        7.9570   13.0540   25.7080 C.3   187  LEU187      0.0001
     91  N         10.8420   15.8460   22.1130 N.am  188  MET188     -0.1965
     92  CA        11.4660   16.3410   20.8970 C.3   188  MET188      0.1736
     93  C         12.9570   16.5930   21.1240 C.2   188  MET188      0.2616
     94  O         13.4580   16.4560   22.2360 O.2   188  MET188     -0.2715
     95  CB        10.7450   17.6020   20.3970 C.3   188  MET188      0.0427
     96  CG        10.8620   18.8190   21.2910 C.3   188  MET188      0.0599
     97  SD         9.9640   20.2450   20.6500 S.3   188  MET188     -0.1393
     98  CE        10.7780   20.5150   19.1810 C.3   188  MET188      0.0692
     99  N         13.6610   16.9550   20.0590 N.am  189  GLU189     -0.1977
    100  CA        15.1080   17.1580   20.1120 C.3   189  GLU189      0.1602
    101  C         15.5790   18.4380   20.8060 C.2   189  GLU189      0.2287
    102  O         15.0390   19.5260   20.5870 O.2   189  GLU189     -0.2864
    103  CB        15.6580   17.0080   18.6880 C.3   189  GLU189      0.0415
    104  CG        15.2910   15.6170   18.1560 C.3   189  GLU189      0.1163
    105  CD        15.3950   15.4470   16.6480 C.2   189  GLU189      0.3649
    106  OE1       15.2820   16.4420   15.8970 O.co2 189  GLU189     -0.2457
    107  OE2       15.5570   14.2870   16.2120 O.co2 189  GLU189     -0.2457
    108  N         16.1230   21.9920   19.2250 N.3   192  THR192     -0.1218
    109  CA        14.8870   22.7170   18.9800 C.3   192  THR192      0.1862
    110  C         14.2740   23.1870   20.2930 C.2   192  THR192      0.2287
    111  O         13.7430   24.2900   20.3740 O.2   192  THR192     -0.2866
    112  CB        13.8910   21.8320   18.2290 C.3   192  THR192      0.1770
    113  OG1       14.5760   21.1710   17.1570 O.3   192  THR192     -0.2211
    114  CG2       12.7590   22.6700   17.6630 C.3   192  THR192      0.0375
    115  N         22.3340   15.6860   13.3430 N.3   215  TYR215     -0.1241
    116  CA        21.6010   16.0130   12.1240 C.3   215  TYR215      0.1605
    117  C         22.6320   15.9380   11.0070 C.2   215  TYR215      0.2264
    118  O         23.7530   16.4460   11.1570 O.2   215  TYR215     -0.2867
    119  CB        21.0740   17.4530   12.1630 C.3   215  TYR215      0.0534
    120  CG        19.9220   17.7090   13.1110 C.ar  215  TYR215     -0.0201
    121  CD1       19.7240   18.9780   13.6440 C.ar  215  TYR215     -0.0009
    122  CD2       19.0140   16.6980   13.4530 C.ar  215  TYR215     -0.0009
    123  CE1       18.6540   19.2460   14.4950 C.ar  215  TYR215      0.0417
    124  CE2       17.9400   16.9560   14.3030 C.ar  215  TYR215      0.0417
    125  CZ        17.7700   18.2350   14.8210 C.ar  215  TYR215      0.1957
    126  OH        16.7310   18.5140   15.6780 O.3   215  TYR215     -0.2866
@<TRIPOS>BOND
     1    36    35    2
     2    27    25    1
     3     4     3    2
     4    35    34    1
     5     3     2    1
     6    25    26    1
     7    25    24    1
     8    34    37    1
     9    34    33    1
    10    24    21    1
    11     1     2    1
    12     2     5    1
    13    37    38    1
    14    38    39    1
    15    39    40    1
    16    13    19    1
    17    13    14    1
    18    19    18    1
    19    40    41    2
    20    21    20    1
    21    21    22    1
    22     5     6    1
    23    20    15   am
    24     8     6   ar
    25     8    10   ar
    26     6     7   ar
    27    41    43    1
    28    41    42    1
    29    23    22    2
    30    22    28   am
    31    10    11   ar
    32    15    14    1
    33    15    16    2
    34    14    17    1
    35     7     9   ar
    36    18    17    1
    37   117   118    2
    38   117   116    1
    39    31    30    2
    40    11     9   ar
    41    11    12    1
    42    28    29    1
    43    30    29    1
    44   116   119    1
    45   116   115    1
    46   119   120    1
    47    29    32    1
    48    51    52    1
    49   120   122   ar
    50   120   121   ar
    51    52    53    1
    52   122   124   ar
    53   121   123   ar
    54    53    55   am
    55    53    54    2
    56    50    48    1
    57    55    56    1
    58   124   125   ar
    59   123   125   ar
    60    59    56    1
    61    74    73    1
    62    56    57    1
    63   125   126    1
    64    75    76    1
    65    49    48    1
    66    82    80   am
    67    73    72    1
    68    48    45    1
    69    46    47    2
    70    46    45    1
    71   106   105   ar
    72    80    79    1
    73    80    81    2
    74    45    44    1
    75    79    76    1
    76   107   105   ar
    77    76    77    1
    78    57    58    2
    79    57    60   am
    80   105   104    1
    81    77    78    2
    82    71    72    1
    83    71    68    1
    84    60    61    1
    85   113   112    1
    86   114   112    1
    87    69    68    1
    88    69    70    2
    89    67    68    1
    90    67    62   am
    91   104   103    1
    92   112   109    1
    93    61    62    1
    94    61    64    1
    95    62    63    2
    96   103   100    1
    97    65    64    1
    98    64    66    1
    99   109   108    1
   100   109   110    1
   101    98    97    1
   102    99   100    1
   103    99    93   am
   104   100   101    1
   105   110   111    2
   106    95    92    1
   107    95    96    1
   108   102   101    2
   109    97    96    1
   110    92    93    1
   111    92    91    1
   112    86    85    2
   113    93    94    2
   114    85    91   am
   115    85    84    1
   116    84    87    1
   117    84    83    1
   118    87    88    1
   119    88    89    1
   120    88    90    1
