@<TRIPOS>MOLECULE
tmp/1sa1B01.pdb
 147 136 0 0 0
SMALL
GASTEIGER

@<TRIPOS>ATOM
      1  N        113.5000   76.7710    1.4810 N.3   234  GLY234     -0.1210
      2  CA       114.2220   77.9700    1.1210 C.3   234  GLY234      0.1956
      3  C        113.7340   79.2820    1.7070 C.2   234  GLY234      0.2611
      4  O        114.3510   80.2890    1.4660 O.2   234  GLY234     -0.2717
      5  N        112.6500   79.3070    2.4630 N.am  235  VAL235     -0.1979
      6  CA       112.2270   80.5760    3.0350 C.3   235  VAL235      0.1595
      7  C        112.6800   80.6440    4.4600 C.2   235  VAL235      0.2287
      8  O        112.8520   81.7210    5.0170 O.2   235  VAL235     -0.2864
      9  CB       110.7050   80.7570    3.0440 C.3   235  VAL235      0.0276
     10  CG1      110.3540   82.1640    3.4330 C.3   235  VAL235      0.0022
     11  CG2      110.0790   80.4330    1.7020 C.3   235  VAL235      0.0022
     12  N        115.3420   78.6580    5.5280 N.3   237  THR237     -0.1203
     13  CA       116.7780   78.5360    5.4490 C.3   237  THR237      0.1994
     14  C        117.4190   79.3160    6.5520 C.2   237  THR237      0.2618
     15  O        117.7640   78.7590    7.5660 O.2   237  THR237     -0.2717
     16  CB       117.2090   79.0940    4.1690 C.3   237  THR237      0.1784
     17  OG1      116.0910   79.7740    3.6120 O.3   237  THR237     -0.2211
     18  CG2      117.4220   77.9990    3.2140 C.3   237  THR237      0.0376
     19  N        117.5150   80.6210    6.3860 N.am  238  CYS238     -0.1955
     20  CA       118.2870   81.4340    7.3170 C.3   238  CYS238      0.1843
     21  C        118.1000   81.1900    8.7830 C.2   238  CYS238      0.2625
     22  O        119.0960   81.1860    9.5050 O.2   238  CYS238     -0.2714
     23  CB       118.0820   82.9060    7.0850 C.3   238  CYS238      0.0997
     24  SG       119.1240   83.4510    5.7680 S.3   238  CYS238     -0.0797
     25  N        116.8600   81.0050    9.2410 N.am  239  LEU239     -0.1977
     26  CA       116.6510   80.7960   10.6790 C.3   239  LEU239      0.1596
     27  C        116.9150   79.3840   11.1290 C.2   239  LEU239      0.2287
     28  O        116.9140   79.1200   12.3240 O.2   239  LEU239     -0.2864
     29  CB       115.2960   81.2800   11.1870 C.3   239  LEU239      0.0297
     30  CG       114.0920   81.4630   10.2720 C.3   239  LEU239      0.0022
     31  CD1      113.3220   80.1770   10.0430 C.3   239  LEU239      0.0001
     32  CD2      113.2030   82.4550   10.9490 C.3   239  LEU239      0.0001
     33  N        123.9050   86.1000    9.6610 N.3   245  LEU245     -0.1245
     34  CA       122.5830   86.5840   10.1570 C.3   245  LEU245      0.1561
     35  C        121.7710   85.6740   11.1550 C.2   245  LEU245      0.2260
     36  O        121.8340   85.9010   12.3730 O.2   245  LEU245     -0.2867
     37  CB       121.7280   87.1460    8.9970 C.3   245  LEU245      0.0270
     38  CG       122.1170   86.6300    7.5990 C.3   245  LEU245      0.0019
     39  CD1      120.9040   85.9500    6.9510 C.3   245  LEU245      0.0001
     40  CD2      122.8180   87.6380    6.6840 C.3   245  LEU245      0.0001
     41  N        118.5410   85.4320   11.5430 N.3   247  ALA247     -0.1245
     42  CA       117.1440   85.8350   11.3690 C.3   247  ALA247      0.1562
     43  C        116.1080   85.5140   12.4890 C.2   247  ALA247      0.2260
     44  O        115.4160   84.4930   12.4250 O.2   247  ALA247     -0.2867
     45  CB       116.6620   85.2720   10.0460 C.3   247  ALA247      0.0290
     46  N        113.5780   89.9160   13.5510 N.3   251  LYS251     -0.1231
     47  CA       114.4830   90.5210   12.6280 C.3   251  LYS251      0.1693
     48  C        113.8440   90.4680   11.2510 C.2   251  LYS251      0.2591
     49  O        113.8620   91.4580   10.5390 O.2   251  LYS251     -0.2718
     50  CB       115.8170   89.8110   12.6770 C.3   251  LYS251      0.0285
     51  CG       116.7470   90.3890   13.7260 C.3   251  LYS251      0.0035
     52  CD       118.2180   90.2030   13.3190 C.3   251  LYS251      0.0206
     53  CE       119.1830   90.1670   14.5140 C.3   251  LYS251      0.1093
     54  NZ       120.4160   89.3770   14.2160 N.3   251  LYS251     -0.1314
     55  N        113.2170   89.3410   10.9090 N.am  252  LEU252     -0.1980
     56  CA       112.4700   89.2120    9.6420 C.3   252  LEU252      0.1596
     57  C        111.0990   89.8500    9.6720 C.2   252  LEU252      0.2287
     58  O        110.2560   89.5240    8.8670 O.2   252  LEU252     -0.2864
     59  CB       112.2930   87.7340    9.2180 C.3   252  LEU252      0.0297
     60  CG       111.8030   87.2030    7.8320 C.3   252  LEU252      0.0022
     61  CD1      110.5530   86.3080    7.9470 C.3   252  LEU252      0.0001
     62  CD2      111.6460   88.2500    6.6760 C.3   252  LEU252      0.0001
     63  N        111.8570   94.3590    9.0640 N.3   255  ASN255     -0.1225
     64  CA       112.8350   94.5480    8.0310 C.3   255  ASN255      0.1785
     65  C        112.0920   94.3170    6.7460 C.2   255  ASN255      0.2597
     66  O        112.4660   94.7920    5.6860 O.2   255  ASN255     -0.2718
     67  CB       113.9440   93.5040    8.1980 C.3   255  ASN255      0.1169
     68  CG       115.3590   94.0860    8.0630 C.2   255  ASN255      0.2627
     69  OD1      115.7040   94.6830    7.0350 O.2   255  ASN255     -0.2716
     70  ND2      116.1950   93.8720    9.0890 N.am  255  ASN255     -0.0877
     71  N        111.0070   93.5780    6.8590 N.am  256  MET256     -0.1979
     72  CA       110.2240   93.2090    5.6990 C.3   256  MET256      0.1605
     73  C        108.9680   94.0590    5.5900 C.2   256  MET256      0.2287
     74  O        108.4800   94.2880    4.4800 O.2   256  MET256     -0.2864
     75  CB       109.8170   91.7320    5.7800 C.3   256  MET256      0.0413
     76  CG       110.8820   90.6840    5.4030 C.3   256  MET256      0.0598
     77  SD       111.7050   90.8030    3.8100 S.3   256  MET256     -0.1393
     78  CE       110.3830   90.6130    2.6630 C.3   256  MET256      0.0692
     79  N        110.0040   95.8580    0.0550 N.3   306  THR306     -0.1203
     80  CA       111.2440   95.3280    0.6040 C.3   306  THR306      0.1994
     81  C        111.3160   93.8760    0.2220 C.2   306  THR306      0.2618
     82  O        110.3160   93.1710    0.2650 O.2   306  THR306     -0.2717
     83  CB       111.2180   95.3730    2.1150 C.3   306  THR306      0.1784
     84  OG1      110.3310   94.3570    2.5980 O.3   306  THR306     -0.2211
     85  CG2      110.5790   96.6520    2.5980 C.3   306  THR306      0.0376
     86  N        112.5010   93.4110   -0.1140 N.am  307  VAL307     -0.1965
     87  CA       112.6360   92.0790   -0.6530 C.3   307  VAL307      0.1727
     88  C        113.9060   91.4430   -0.1720 C.2   307  VAL307      0.2616
     89  O        114.9600   92.0700   -0.1200 O.2   307  VAL307     -0.2715
     90  CB       112.6200   92.0960   -2.1930 C.3   307  VAL307      0.0290
     91  CG1      113.4430   90.9570   -2.7860 C.3   307  VAL307      0.0023
     92  CG2      111.1980   92.0290   -2.7050 C.3   307  VAL307      0.0023
     93  N        113.7900   90.1680    0.1460 N.am  308  ALA308     -0.1963
     94  CA       114.8850   89.3980    0.6960 C.3   308  ALA308      0.1728
     95  C        115.0670   88.1140   -0.0790 C.2   308  ALA308      0.2616
     96  O        114.1160   87.3700   -0.3220 O.2   308  ALA308     -0.2715
     97  CB       114.5800   89.0830    2.1140 C.3   308  ALA308      0.0334
     98  N        116.2940   87.8300   -0.4560 N.am  309  ALA309     -0.1963
     99  CA       116.5140   86.6680   -1.2810 C.3   309  ALA309      0.1728
    100  C        117.7330   85.8980   -0.8450 C.2   309  ALA309      0.2616
    101  O        118.8130   86.4830   -0.6880 O.2   309  ALA309     -0.2715
    102  CB       116.6650   87.0890   -2.7050 C.3   309  ALA309      0.0334
    103  N        117.5720   84.5860   -0.6690 N.am  310  VAL310     -0.1977
    104  CA       118.7070   83.7410   -0.2980 C.3   310  VAL310      0.1596
    105  C        119.0490   82.7170   -1.3270 C.2   310  VAL310      0.2287
    106  O        118.1710   82.0670   -1.8860 O.2   310  VAL310     -0.2864
    107  CB       118.5150   83.0190    1.0180 C.3   310  VAL310      0.0276
    108  CG1      117.2700   83.4910    1.6710 C.3   310  VAL310      0.0022
    109  CG2      118.4800   81.5310    0.8140 C.3   310  VAL310      0.0022
    110  N        117.3570  100.6360    1.3090 N.3   341  ASN341     -0.1225
    111  CA       118.1020   99.4510    0.9340 C.3   341  ASN341      0.1785
    112  C        117.3110   98.1870    0.7820 C.2   341  ASN341      0.2597
    113  O        117.8540   97.1090    0.7410 O.2   341  ASN341     -0.2718
    114  CB       119.3190   99.2980    1.8290 C.3   341  ASN341      0.1169
    115  CG       120.3530  100.4040    1.5820 C.2   341  ASN341      0.2627
    116  OD1      120.3920  101.4070    2.2930 O.2   341  ASN341     -0.2716
    117  ND2      121.1760  100.2310    0.5520 N.am  341  ASN341     -0.0877
    118  N        116.0170   98.3700    0.6310 N.am  342  ASN342     -0.1974
    119  CA       115.0060   97.3220    0.4260 C.3   342  ASN342      0.1688
    120  C        115.3380   95.9320   -0.1210 C.2   342  ASN342      0.2292
    121  O        114.4400   95.0810   -0.2190 O.2   342  ASN342     -0.2864
    122  CB       113.9140   97.8840   -0.4710 C.3   342  ASN342      0.1181
    123  CG       114.4770   98.5420   -1.7160 C.2   342  ASN342      0.2629
    124  OD1      113.8020   99.3590   -2.3520 O.2   342  ASN342     -0.2716
    125  ND2      115.7210   98.1950   -2.0720 N.am  342  ASN342     -0.0877
    126  N        118.1000   92.8060    0.3940 N.3   344  LYS344     -0.1245
    127  CA       119.2800   92.1000    0.9370 C.3   344  LYS344      0.1561
    128  C        119.2560   90.6200    0.5810 C.2   344  LYS344      0.2260
    129  O        118.1870   90.0310    0.3250 O.2   344  LYS344     -0.2867
    130  CB       119.4910   92.3030    2.4580 C.3   344  LYS344      0.0271
    131  CG       119.3090   93.7620    2.9810 C.3   344  LYS344      0.0035
    132  CD       120.6160   94.6120    3.0790 C.3   344  LYS344      0.0206
    133  CE       120.3100   96.1030    3.3450 C.3   344  LYS344      0.1093
    134  NZ       121.5320   96.9190    3.2770 N.3   344  LYS344     -0.1314
    135  N        121.3070   86.6800    0.7680 N.3   346  ALA346     -0.1245
    136  CA       122.1390   85.8060    1.5330 C.3   346  ALA346      0.1562
    137  C        122.4660   84.5790    0.7530 C.2   346  ALA346      0.2260
    138  O        121.7430   84.1660   -0.1470 O.2   346  ALA346     -0.2867
    139  CB       121.4920   85.4560    2.8320 C.3   346  ALA346      0.0290
    140  N        111.8040   86.3480   -0.9380 N.3   362  ILE362     -0.1245
    141  CA       110.7350   86.7940   -0.0500 C.3   362  ILE362      0.1561
    142  C        110.3070   88.1910   -0.4560 C.2   362  ILE362      0.2260
    143  O        111.1300   89.1050   -0.4790 O.2   362  ILE362     -0.2867
    144  CB       111.1950   86.7240    1.4150 C.3   362  ILE362      0.0252
    145  CG1      110.6620   85.4520    2.0270 C.3   362  ILE362      0.0019
    146  CG2      110.6880   87.8730    2.2390 C.3   362  ILE362      0.0019
    147  CD1      111.2180   85.1880    3.3580 C.3   362  ILE362      0.0001
@<TRIPOS>BOND
     1    91    90    1
     2   102    99    1
     3    92    90    1
     4   124   123    2
     5    90    87    1
     6   125   123   am
     7   106   105    2
     8   123   122    1
     9   105   104    1
    10    99   100    1
    11    99    98    1
    12   140   141    1
    13   100   101    2
    14   100   103   am
    15   103   104    1
    16    87    88    1
    17    87    86    1
    18   143   142    2
    19   122   119    1
    20   142   141    1
    21    98    95   am
    22    96    95    2
    23   104   107    1
    24   121   120    2
    25    88    89    2
    26    88    93   am
    27   138   137    2
    28   120   119    1
    29    86    81   am
    30    95    94    1
    31   141   144    1
    32    79    80    1
    33    93    94    1
    34    81    82    2
    35    81    80    1
    36   129   128    2
    37   126   127    1
    38   119   118    1
    39   117   115   am
    40   128   127    1
    41    80    83    1
    42   118   112   am
    43    94    97    1
    44   113   112    2
    45   137   136    1
    46   135   136    1
    47   112   111    1
    48   109   107    1
    49   111   110    1
    50   111   114    1
    51   127   130    1
    52   107   108    1
    53     2     1    1
    54     2     3    1
    55   144   145    1
    56   144   146    1
    57     4     3    2
    58   136   139    1
    59   115   114    1
    60   115   116    2
    61    11     9    1
    62     3     5   am
    63   145   147    1
    64    83    85    1
    65    83    84    1
    66   130   131    1
    67     5     6    1
    68    78    77    1
    69   131   132    1
    70     6     9    1
    71     6     7    1
    72     9    10    1
    73   132   133    1
    74    18    16    1
    75   134   133    1
    76    17    16    1
    77    77    76    1
    78    16    13    1
    79     7     8    2
    80    74    73    2
    81    76    75    1
    82    13    12    1
    83    13    14    1
    84    73    72    1
    85    66    65    2
    86    72    75    1
    87    72    71    1
    88    24    23    1
    89    19    14   am
    90    19    20    1
    91    14    15    2
    92    62    60    1
    93    40    38    1
    94    65    71   am
    95    65    64    1
    96    39    38    1
    97    69    68    2
    98    23    20    1
    99    20    21    1
   100    38    37    1
   101    60    61    1
   102    60    59    1
   103    64    67    1
   104    64    63    1
   105    68    67    1
   106    68    70   am
   107    21    25   am
   108    21    22    2
   109    58    57    2
   110    37    34    1
   111    59    56    1
   112    25    26    1
   113    56    57    1
   114    56    55    1
   115    33    34    1
   116    31    30    1
   117    45    42    1
   118    34    35    1
   119    30    32    1
   120    30    29    1
   121    49    48    2
   122    26    27    1
   123    26    29    1
   124    55    48   am
   125    27    28    2
   126    35    36    2
   127    48    47    1
   128    42    41    1
   129    42    43    1
   130    44    43    2
   131    47    50    1
   132    47    46    1
   133    50    51    1
   134    52    51    1
   135    52    53    1
   136    54    53    1
