@<TRIPOS>MOLECULE
tmp/1sa5B01.pdb
 165 164 0 0 0
SMALL
GASTEIGER

@<TRIPOS>ATOM
      1  N         96.2520    7.8930   30.5960 N.3    77  TYR77      -0.1241
      2  CA        95.8260    9.1130   31.2460 C.3    77  TYR77       0.1605
      3  C         95.5720    8.9820   32.7390 C.2    77  TYR77       0.2264
      4  O         94.8840    9.8170   33.3330 O.2    77  TYR77      -0.2867
      5  CB        94.5950    9.6840   30.5490 C.3    77  TYR77       0.0534
      6  CG        94.9570   10.3800   29.2610 C.ar   77  TYR77      -0.0201
      7  CD1       95.1280    9.6610   28.0780 C.ar   77  TYR77      -0.0009
      8  CD2       95.2360   11.7480   29.2450 C.ar   77  TYR77      -0.0009
      9  CE1       95.5730   10.2860   26.9160 C.ar   77  TYR77       0.0417
     10  CE2       95.6820   12.3820   28.0890 C.ar   77  TYR77       0.0417
     11  CZ        95.8490   11.6460   26.9350 C.ar   77  TYR77       0.1957
     12  OH        96.3050   12.2630   25.8010 O.3    77  TYR77      -0.2866
     13  N         97.6580    9.5140   34.8910 N.3    79  CYS79      -0.1221
     14  CA        98.3990   10.6340   35.4680 C.3    79  CYS79       0.1808
     15  C         97.5680   11.9160   35.4770 C.2    79  CYS79       0.2601
     16  O         97.9470   12.9080   36.1000 O.2    79  CYS79      -0.2717
     17  CB        99.6970   10.8660   34.6860 C.3    79  CYS79       0.0970
     18  SG        99.4470   11.3960   32.9660 S.3    79  CYS79      -0.0800
     19  N         96.4370   11.8890   34.7800 N.am   80  LEU80      -0.1979
     20  CA        95.5540   13.0480   34.7120 C.3    80  LEU80       0.1596
     21  C         94.2020   12.7420   35.3500 C.2    80  LEU80       0.2287
     22  O         93.1970   13.3890   35.0610 O.2    80  LEU80      -0.2864
     23  CB        95.3830   13.4920   33.2540 C.3    80  LEU80       0.0297
     24  CG        96.6420   14.1800   32.7110 C.3    80  LEU80       0.0022
     25  CD1       96.6250   14.2510   31.2050 C.3    80  LEU80       0.0001
     26  CD2       96.7270   15.5810   33.3030 C.3    80  LEU80       0.0001
     27  N         92.6310   15.6300   36.9230 N.3    83  SER83      -0.1217
     28  CA        92.4540   16.7620   36.0230 C.3    83  SER83       0.1889
     29  C         91.4210   16.4430   34.9600 C.2    83  SER83       0.2288
     30  O         91.5410   16.8770   33.8200 O.2    83  SER83      -0.2866
     31  CB        93.7820   17.1120   35.3440 C.3    83  SER83       0.2089
     32  OG        94.7210   17.5820   36.2920 O.3    83  SER83      -0.2183
     33  N         89.9250   19.2620   33.0660 N.3    86  TRP86      -0.1241
     34  CA        90.8750   19.7920   32.0880 C.3    86  TRP86       0.1605
     35  C         90.7060   19.0240   30.7930 C.2    86  TRP86       0.2264
     36  O         90.7150   19.6030   29.7100 O.2    86  TRP86      -0.2867
     37  CB        92.3240   19.6200   32.5580 C.3    86  TRP86       0.0550
     38  CG        92.8680   20.7330   33.4040 C.ar   86  TRP86       0.0003
     39  CD1       93.2820   20.6460   34.6980 C.ar   86  TRP86       0.0946
     40  CD2       93.1240   22.0790   32.9890 C.ar   86  TRP86       0.0152
     41  NE1       93.7850   21.8460   35.1190 N.ar   86  TRP86      -0.2442
     42  CE2       93.7030   22.7490   34.0910 C.ar   86  TRP86       0.0810
     43  CE3       92.9280   22.7840   31.7930 C.ar   86  TRP86       0.0012
     44  CZ2       94.0900   24.0990   34.0350 C.ar   86  TRP86       0.0191
     45  CZ3       93.3150   24.1260   31.7340 C.ar   86  TRP86       0.0001
     46  CH2       93.8910   24.7690   32.8540 C.ar   86  TRP86       0.0015
     47  N         89.9810   20.8430   27.2850 N.3    90  TRP90      -0.1241
     48  CA        90.9020   20.7330   26.1590 C.3    90  TRP90       0.1605
     49  C         90.2660   20.0890   24.9400 C.2    90  TRP90       0.2264
     50  O         90.4980   20.5230   23.8080 O.2    90  TRP90      -0.2867
     51  CB        92.1520   19.9260   26.5280 C.3    90  TRP90       0.0550
     52  CG        92.9870   20.5110   27.6310 C.ar   90  TRP90       0.0003
     53  CD1       93.2380   21.8340   27.8590 C.ar   90  TRP90       0.0946
     54  CD2       93.7290   19.7840   28.6230 C.ar   90  TRP90       0.0152
     55  NE1       94.0880   21.9770   28.9260 N.ar   90  TRP90      -0.2442
     56  CE2       94.4080   20.7380   29.4160 C.ar   90  TRP90       0.0810
     57  CE3       93.8900   18.4210   28.9150 C.ar   90  TRP90       0.0012
     58  CZ2       95.2360   20.3750   30.4830 C.ar   90  TRP90       0.0191
     59  CZ3       94.7150   18.0580   29.9790 C.ar   90  TRP90       0.0001
     60  CH2       95.3770   19.0350   30.7480 C.ar   90  TRP90       0.0015
     61  N         92.5740   25.0940   39.3090 N.3   135  ALA135     -0.1245
     62  CA        92.8710   24.7050   37.9300 C.3   135  ALA135      0.1562
     63  C         91.6710   23.9530   37.3330 C.2   135  ALA135      0.2260
     64  O         91.1040   24.3870   36.3260 O.2   135  ALA135     -0.2867
     65  CB        94.1320   23.8510   37.8720 C.3   135  ALA135      0.0290
     66  N         99.3050   31.2840   38.4230 N.3   186  ARG186     -0.1245
     67  CA        98.2080   30.5370   37.8090 C.3   186  ARG186      0.1563
     68  C         96.8890   30.7470   38.5710 C.2   186  ARG186      0.2260
     69  O         95.8250   30.8890   37.9650 O.2   186  ARG186     -0.2867
     70  CB        98.5120   29.0360   37.7930 C.3   186  ARG186      0.0307
     71  CG        99.6130   28.5720   36.8540 C.3   186  ARG186      0.0489
     72  CD        99.8210   27.0800   37.0530 C.3   186  ARG186      0.2205
     73  NE       100.1350   26.7640   38.4460 N.pl3 186  ARG186     -0.0865
     74  CZ        99.9390   25.5740   39.0090 C.cat 186  ARG186      0.5346
     75  NH1       99.4190   24.5800   38.2920 N.pl3 186  ARG186      0.1354
     76  NH2      100.2620   25.3690   40.2840 N.pl3 186  ARG186      0.1354
     77  N        108.2750   24.4250   21.7900 N.3   281  ASP281     -0.1239
     78  CA       107.2140   23.5370   22.2090 C.3   281  ASP281      0.1674
     79  C        105.8860   24.0280   21.6490 C.2   281  ASP281      0.2266
     80  O        105.4610   25.1560   21.9090 O.2   281  ASP281     -0.2867
     81  CB       107.1470   23.4720   23.7290 C.3   281  ASP281      0.1410
     82  CG       106.1420   22.4440   24.2220 C.2   281  ASP281      0.3668
     83  OD1      105.1760   22.1550   23.4820 O.co2 281  ASP281     -0.2456
     84  OD2      106.3080   21.9350   25.3540 O.co2 281  ASP281     -0.2456
     85  N        102.8230   23.7660   22.4060 N.3   283  CYS283     -0.1221
     86  CA       101.7820   24.3600   23.2410 C.3   283  CYS283      0.1808
     87  C        102.0230   25.8440   23.4870 C.2   283  CYS283      0.2601
     88  O        101.0920   26.5900   23.7850 O.2   283  CYS283     -0.2717
     89  CB       101.6380   23.6080   24.5730 C.3   283  CYS283      0.0970
     90  SG       102.9940   23.7650   25.7350 S.3   283  CYS283     -0.0800
     91  N        103.2700   26.2810   23.3520 N.am  284  TYR284     -0.1976
     92  CA       103.5740   27.6930   23.5520 C.3   284  TYR284      0.1639
     93  C        103.0540   28.5000   22.3790 C.2   284  TYR284      0.2290
     94  O        103.0710   29.7290   22.3960 O.2   284  TYR284     -0.2864
     95  CB       105.0690   27.8990   23.7410 C.3   284  TYR284      0.0560
     96  CG       105.5340   27.3230   25.0540 C.ar  284  TYR284     -0.0198
     97  CD1      106.6140   26.4480   25.1060 C.ar  284  TYR284     -0.0009
     98  CD2      104.8670   27.6330   26.2470 C.ar  284  TYR284     -0.0009
     99  CE1      107.0210   25.8850   26.3070 C.ar  284  TYR284      0.0417
    100  CE2      105.2660   27.0830   27.4560 C.ar  284  TYR284      0.0417
    101  CZ       106.3480   26.2010   27.4790 C.ar  284  TYR284      0.1957
    102  OH       106.7530   25.6190   28.6630 O.3   284  TYR284     -0.2866
    103  N        100.3400   29.8900   24.8160 N.3   287  TRP287     -0.1241
    104  CA       100.7770   30.6580   25.9730 C.3   287  TRP287      0.1605
    105  C        101.6390   31.8700   25.5840 C.2   287  TRP287      0.2264
    106  O        101.4290   32.9730   26.0930 O.2   287  TRP287     -0.2867
    107  CB       101.5450   29.7650   26.9530 C.3   287  TRP287      0.0550
    108  CG       100.8280   28.4900   27.3650 C.ar  287  TRP287      0.0003
    109  CD1      101.2620   27.2110   27.1530 C.ar  287  TRP287      0.0946
    110  CD2       99.5740   28.3750   28.0660 C.ar  287  TRP287      0.0152
    111  NE1      100.3680   26.3100   27.6710 N.ar  287  TRP287     -0.2442
    112  CE2       99.3210   26.9890   28.2390 C.ar  287  TRP287      0.0810
    113  CE3       98.6440   29.3030   28.5630 C.ar  287  TRP287      0.0012
    114  CZ2       98.1730   26.5000   28.8930 C.ar  287  TRP287      0.0191
    115  CZ3       97.4920   28.8180   29.2190 C.ar  287  TRP287      0.0001
    116  CH2       97.2720   27.4210   29.3760 C.ar  287  TRP287      0.0015
    117  N        103.9770   18.3570   21.1470 N.3   336  ASP336     -0.1239
    118  CA       105.0670   19.2040   21.6090 C.3   336  ASP336      0.1674
    119  C        106.0110   19.5200   20.4370 C.2   336  ASP336      0.2266
    120  O        106.1080   20.6570   19.9830 O.2   336  ASP336     -0.2867
    121  CB       105.7980   18.4330   22.7250 C.3   336  ASP336      0.1410
    122  CG       107.0430   19.1310   23.2450 C.2   336  ASP336      0.3668
    123  OD1      107.6440   19.9600   22.5310 O.co2 336  ASP336     -0.2456
    124  OD2      107.4390   18.8150   24.3890 O.co2 336  ASP336     -0.2456
    125  N         98.9680   14.1190   22.7900 N.3   343  ASP343     -0.1225
    126  CA        98.1590   14.1670   23.9900 C.3   343  ASP343      0.1805
    127  C         97.1300   15.2660   23.7900 C.2   343  ASP343      0.2598
    128  O         97.2660   16.0960   22.8910 O.2   343  ASP343     -0.2718
    129  CB        99.0130   14.3990   25.2400 C.3   343  ASP343      0.1424
    130  CG        99.7410   15.7100   25.2220 C.2   343  ASP343      0.3668
    131  OD1       99.0760   16.7640   25.3240 O.co2 343  ASP343     -0.2456
    132  OD2      100.9840   15.6800   25.1130 O.co2 343  ASP343     -0.2456
    133  N         96.0870   15.2690   24.6050 N.am  344  PHE344     -0.1962
    134  CA        95.0460   16.2570   24.4320 C.3   344  PHE344      0.1771
    135  C         95.4510   17.6790   24.7870 C.2   344  PHE344      0.2620
    136  O         94.9390   18.6210   24.2020 O.2   344  PHE344     -0.2715
    137  CB        93.7840   15.8030   25.1740 C.3   344  PHE344      0.0574
    138  CG        93.2290   14.5110   24.6370 C.ar  344  PHE344     -0.0200
    139  CD1       93.5480   13.2990   25.2330 C.ar  344  PHE344     -0.0042
    140  CD2       92.4790   14.4980   23.4660 C.ar  344  PHE344     -0.0042
    141  CE1       93.1360   12.0960   24.6680 C.ar  344  PHE344     -0.0003
    142  CE2       92.0620   13.2960   22.8940 C.ar  344  PHE344     -0.0003
    143  CZ        92.3930   12.0970   23.4950 C.ar  344  PHE344     -0.0000
    144  N         96.3870   17.8310   25.7190 N.am  345  TYR345     -0.1960
    145  CA        96.8620   19.1490   26.1130 C.3   345  TYR345      0.1771
    146  C         97.4520   19.8520   24.8910 C.2   345  TYR345      0.2619
    147  O         97.0760   20.9770   24.5580 O.2   345  TYR345     -0.2715
    148  CB        97.9360   19.0080   27.1920 C.3   345  TYR345      0.0574
    149  CG        98.7120   20.2730   27.5000 C.ar  345  TYR345     -0.0198
    150  CD1       98.2680   21.1760   28.4720 C.ar  345  TYR345     -0.0009
    151  CD2       99.9060   20.5620   26.8260 C.ar  345  TYR345     -0.0009
    152  CE1       98.9960   22.3360   28.7660 C.ar  345  TYR345      0.0417
    153  CE2      100.6370   21.7150   27.1130 C.ar  345  TYR345      0.0417
    154  CZ       100.1740   22.5960   28.0830 C.ar  345  TYR345      0.1957
    155  OH       100.8860   23.7400   28.3540 O.3   345  TYR345     -0.2866
    156  N         98.3760   19.1830   24.2190 N.am  346  HIS346     -0.1973
    157  CA        99.0010   19.7640   23.0530 C.3   346  HIS346      0.1656
    158  C         98.0500   19.8880   21.8650 C.2   346  HIS346      0.2291
    159  O         98.2420   20.7290   20.9870 O.2   346  HIS346     -0.2864
    160  CB       100.2400   18.9570   22.6770 C.3   346  HIS346      0.0771
    161  CG       101.3840   19.1580   23.6190 C.ar  346  HIS346      0.0820
    162  ND1      101.5600   18.3950   24.7540 N.ar  346  HIS346     -0.2267
    163  CD2      102.3810   20.0740   23.6250 C.ar  346  HIS346      0.1154
    164  CE1      102.6160   18.8310   25.4170 C.ar  346  HIS346      0.1986
    165  NE2      103.1310   19.8500   24.7540 N.ar  346  HIS346     -0.2212
@<TRIPOS>BOND
     1   120   119    2
     2   119   118    1
     3   159   158    2
     4   117   118    1
     5   118   121    1
     6    79    80    2
     7    79    78    1
     8    77    78    1
     9   158   157    1
    10    78    81    1
    11    93    94    2
    12    93    92    1
    13    85    86    1
    14   123   122   ar
    15   160   157    1
    16   160   161    1
    17   121   122    1
    18   125   126    1
    19   128   127    2
    20   142   140   ar
    21   142   143   ar
    22   157   156    1
    23    86    87    1
    24    86    89    1
    25   122   124   ar
    26    91    87   am
    27    91    92    1
    28   140   138   ar
    29    83    82   ar
    30    87    88    2
    31   143   141   ar
    32    92    95    1
    33   161   163   ar
    34   161   162   ar
    35   163   165   ar
    36    81    82    1
    37    95    96    1
    38   127   126    1
    39   127   133   am
    40    50    49    2
    41   126   129    1
    42   136   135    2
    43   156   146   am
    44    82    84   ar
    45   134   133    1
    46   134   135    1
    47   134   137    1
    48   147   146    2
    49    89    90    1
    50   138   137    1
    51   138   139   ar
    52   141   139   ar
    53   162   164   ar
    54   165   164   ar
    55   135   144   am
    56   103   104    1
    57   146   145    1
    58    49    48    1
    59    96    97   ar
    60    96    98   ar
    61    97    99   ar
    62   132   130   ar
    63   130   129    1
    64   130   131   ar
    65   105   104    1
    66   105   106    2
    67   144   145    1
    68    12    11    1
    69   104   107    1
    70   145   148    1
    71    48    51    1
    72    48    47    1
    73    98   100   ar
    74    99   101   ar
    75    51    52    1
    76   151   153   ar
    77   151   149   ar
    78     9    11   ar
    79     9     7   ar
    80    11    10   ar
    81   107   108    1
    82   153   154   ar
    83   109   108   ar
    84   109   111   ar
    85   148   149    1
    86   108   110   ar
    87   100   101   ar
    88   101   102    1
    89   149   150   ar
    90    52    53   ar
    91    52    54   ar
    92   111   112   ar
    93    53    55   ar
    94   110   112   ar
    95   110   113   ar
    96     7     6   ar
    97   154   155    1
    98   154   152   ar
    99    10     8   ar
   100   112   114   ar
   101   150   152   ar
   102   113   115   ar
   103    54    57   ar
   104    54    56   ar
   105   114   116   ar
   106    57    59   ar
   107    55    56   ar
   108   115   116   ar
   109     8     6   ar
   110     6     5    1
   111    56    58   ar
   112    36    35    2
   113    59    60   ar
   114    58    60   ar
   115     5     2    1
   116     1     2    1
   117    35    34    1
   118    25    24    1
   119     2     3    1
   120    45    43   ar
   121    45    46   ar
   122    43    40   ar
   123    34    37    1
   124    34    33    1
   125    37    38    1
   126    24    23    1
   127    24    26    1
   128     3     4    2
   129    46    44   ar
   130    18    17    1
   131    40    38   ar
   132    40    42   ar
   133    23    20    1
   134    38    39   ar
   135    30    29    2
   136    44    42   ar
   137    42    41   ar
   138    17    14    1
   139    39    41   ar
   140    20    19    1
   141    20    21    1
   142    19    15   am
   143    13    14    1
   144    29    28    1
   145    22    21    2
   146    31    28    1
   147    31    32    1
   148    14    15    1
   149    15    16    2
   150    28    27    1
   151    64    63    2
   152    71    72    1
   153    71    70    1
   154    72    73    1
   155    63    62    1
   156    70    67    1
   157    67    66    1
   158    67    68    1
   159    65    62    1
   160    62    61    1
   161    69    68    2
   162    75    74    1
   163    73    74    2
   164    74    76    1
