@<TRIPOS>MOLECULE
tmp/1sazA00.pdb
 134 130 0 0 0
SMALL
GASTEIGER

@<TRIPOS>ATOM
      1  N         41.9920   16.8970   34.4400 N.3   149  HIS149     -0.1241
      2  CA        41.5120   18.2720   34.4750 C.3   149  HIS149      0.1621
      3  C         40.3000   18.3610   35.4030 C.2   149  HIS149      0.2264
      4  O         39.1820   18.6260   34.9600 O.2   149  HIS149     -0.2867
      5  CB        41.1200   18.7270   33.0700 C.3   149  HIS149      0.0745
      6  CG        42.2840   19.0940   32.2060 C.ar  149  HIS149      0.0817
      7  ND1       43.4860   18.4190   32.2480 N.ar  149  HIS149     -0.2268
      8  CD2       42.4210   20.0480   31.2540 C.ar  149  HIS149      0.1154
      9  CE1       44.3120   18.9400   31.3590 C.ar  149  HIS149      0.1986
     10  NE2       43.6900   19.9300   30.7420 N.ar  149  HIS149     -0.2212
     11  N         35.8520   14.7690   29.2080 N.3   174  HIS174     -0.1241
     12  CA        36.5740   15.9810   28.8550 C.3   174  HIS174      0.1621
     13  C         37.4810   15.5870   27.6950 C.2   174  HIS174      0.2264
     14  O         38.4510   14.8410   27.8820 O.2   174  HIS174     -0.2867
     15  CB        37.4200   16.4700   30.0330 C.3   174  HIS174      0.0745
     16  CG        38.3280   17.6090   29.6880 C.ar  174  HIS174      0.0817
     17  ND1       37.8720   18.8970   29.5040 N.ar  174  HIS174     -0.2268
     18  CD2       39.6580   17.6420   29.4370 C.ar  174  HIS174      0.1154
     19  CE1       38.8810   19.6740   29.1550 C.ar  174  HIS174      0.1986
     20  NE2       39.9760   18.9370   29.1060 N.ar  174  HIS174     -0.2212
     21  N         39.9280   17.1160   25.1550 N.3   175  GLY175     -0.1210
     22  CA        40.7610   18.1790   24.6250 C.3   175  GLY175      0.1956
     23  C         42.0460   17.5700   24.0970 C.2   175  GLY175      0.2612
     24  O         42.0040   16.5410   23.4200 O.2   175  GLY175     -0.2717
     25  N         43.1810   18.2020   24.3920 N.am  176  GLY176     -0.1942
     26  CA        44.4640   17.6650   23.9690 C.3   176  GLY176      0.2014
     27  C         44.7470   16.5080   24.9070 C.2   176  GLY176      0.2639
     28  O         45.6030   15.6620   24.6660 O.2   176  GLY176     -0.2714
     29  N         44.0080   16.5050   26.0100 N.am  177  GLY177     -0.1954
     30  CA        44.1050   15.4600   27.0100 C.3   177  GLY177      0.1869
     31  C         42.6760   14.9650   27.1170 C.2   177  GLY177      0.2309
     32  O         41.7450   15.7520   26.9350 O.2   177  GLY177     -0.2863
     33  N         44.2330   13.9700   20.3620 N.3   203  PRO203     -0.2102
     34  CA        44.7700   14.6530   19.1900 C.3   203  PRO203      0.1504
     35  C         46.2930   14.7630   19.2500 C.2   203  PRO203      0.2576
     36  O         46.9500   14.8610   18.2190 O.2   203  PRO203     -0.2718
     37  CB        44.0910   16.0170   19.2560 C.3   203  PRO203      0.0282
     38  CG        42.7620   15.6850   19.8120 C.3   203  PRO203      0.0208
     39  CD        43.1230   14.7480   20.9400 C.3   203  PRO203      0.0893
     40  N         46.8490   14.7250   20.4590 N.am  204  GLU204     -0.1966
     41  CA        48.2920   14.8490   20.6240 C.3   204  GLU204      0.1733
     42  C         48.9790   13.7730   21.4620 C.2   204  GLU204      0.2616
     43  O         50.2000   13.6700   21.4420 O.2   204  GLU204     -0.2715
     44  CB        48.6170   16.2250   21.2030 C.3   204  GLU204      0.0429
     45  CG        48.0240   16.4800   22.5800 C.3   204  GLU204      0.1163
     46  CD        48.1220   17.9380   22.9940 C.2   204  GLU204      0.3649
     47  OE1       47.5970   18.7920   22.2480 O.co2 204  GLU204     -0.2457
     48  OE2       48.7180   18.2290   24.0580 O.co2 204  GLU204     -0.2457
     49  N         48.2150   12.9700   22.1930 N.am  205  ARG205     -0.1977
     50  CA        48.8100   11.9230   23.0190 C.3   205  ARG205      0.1597
     51  C         48.4450   10.5390   22.4910 C.2   205  ARG205      0.2287
     52  O         47.4070   10.3600   21.8570 O.2   205  ARG205     -0.2864
     53  CB        48.3480   12.0790   24.4680 C.3   205  ARG205      0.0334
     54  CG        48.5830   13.4700   25.0260 C.3   205  ARG205      0.0492
     55  CD        48.1680   13.5890   26.4840 C.3   205  ARG205      0.2205
     56  NE        48.1580   14.9890   26.9090 N.pl3 205  ARG205     -0.0865
     57  CZ        47.7450   15.4190   28.0980 C.cat 205  ARG205      0.5346
     58  NH1       47.3000   14.5600   29.0090 N.pl3 205  ARG205      0.1354
     59  NH2       47.7590   16.7170   28.3720 N.pl3 205  ARG205      0.1354
     60  N         47.1280   18.1980   14.8060 N.3   244  SER244     -0.1202
     61  CA        46.3130   17.9740   15.9890 C.3   244  SER244      0.2020
     62  C         45.0660   18.8520   15.9410 C.2   244  SER244      0.2619
     63  O         44.3730   19.0120   16.9370 O.2   244  SER244     -0.2717
     64  CB        47.1240   18.2670   17.2560 C.3   244  SER244      0.2103
     65  OG        47.5450   19.6170   17.3130 O.3   244  SER244     -0.2182
     66  N         44.7850   19.4050   14.7640 N.am  245  ASP245     -0.1959
     67  CA        43.6300   20.2720   14.5560 C.3   245  ASP245      0.1840
     68  C         42.4610   19.4760   13.9870 C.2   245  ASP245      0.2622
     69  O         42.4780   19.0660   12.8200 O.2   245  ASP245     -0.2715
     70  CB        43.9990   21.4050   13.5890 C.3   245  ASP245      0.1450
     71  CG        42.8610   22.3990   13.3830 C.2   245  ASP245      0.3671
     72  OD1       41.7490   21.9780   12.9910 O.co2 245  ASP245     -0.2456
     73  OD2       43.0810   23.6090   13.6110 O.co2 245  ASP245     -0.2456
     74  N         41.4420   19.2690   14.8130 N.am  246  ALA246     -0.1963
     75  CA        40.2630   18.5170   14.4060 C.3   246  ALA246      0.1728
     76  C         39.5850   19.1280   13.1860 C.2   246  ALA246      0.2616
     77  O         39.1190   18.4060   12.2970 O.2   246  ALA246     -0.2715
     78  CB        39.2780   18.4280   15.5650 C.3   246  ALA246      0.0334
     79  N         39.5220   20.4550   13.1380 N.am  247  ARG247     -0.1977
     80  CA        38.8960   21.1200   12.0000 C.3   247  ARG247      0.1597
     81  C         39.6450   20.7740   10.7140 C.2   247  ARG247      0.2287
     82  O         39.0430   20.6870    9.6470 O.2   247  ARG247     -0.2864
     83  CB        38.8760   22.6430   12.1900 C.3   247  ARG247      0.0334
     84  CG        38.0900   23.1170   13.4030 C.3   247  ARG247      0.0492
     85  CD        37.8120   24.6300   13.3720 C.3   247  ARG247      0.2205
     86  NE        36.9320   25.0200   12.2680 N.pl3 247  ARG247     -0.0865
     87  CZ        37.3510   25.5230   11.1100 C.cat 247  ARG247      0.5346
     88  NH1       38.6480   25.7080   10.8950 N.pl3 247  ARG247      0.1354
     89  NH2       36.4730   25.8300   10.1590 N.pl3 247  ARG247      0.1354
     90  N         34.8740   19.9750   26.4200 N.3   291  GLY291     -0.1210
     91  CA        36.2160   20.1720   25.9030 C.3   291  GLY291      0.1956
     92  C         36.1810   20.6060   24.4500 C.2   291  GLY291      0.2612
     93  O         35.1130   20.6610   23.8390 O.2   291  GLY291     -0.2717
     94  N         37.3510   20.9060   23.8920 N.am  292  GLY292     -0.1942
     95  CA        37.4270   21.3450   22.5080 C.3   292  GLY292      0.2014
     96  C         36.7860   20.4200   21.4860 C.2   292  GLY292      0.2638
     97  O         36.0390   20.8680   20.6120 O.2   292  GLY292     -0.2714
     98  N         37.0640   19.1240   21.5970 N.am  293  LEU293     -0.1977
     99  CA        36.5220   18.1590   20.6560 C.3   293  LEU293      0.1596
    100  C         34.9990   18.1020   20.6700 C.2   293  LEU293      0.2287
    101  O         34.3920   17.5630   19.7440 O.2   293  LEU293     -0.2864
    102  CB        37.1100   16.7700   20.9300 C.3   293  LEU293      0.0297
    103  CG        38.6300   16.6120   20.7160 C.3   293  LEU293      0.0022
    104  CD1       39.0580   15.1860   21.0600 C.3   293  LEU293      0.0001
    105  CD2       38.9930   16.9320   19.2730 C.3   293  LEU293      0.0001
    106  N         33.1790   20.4730   20.2150 N.3   295  HIS295     -0.1226
    107  CA        32.7380   21.4420   19.2190 C.3   295  HIS295      0.1752
    108  C         32.4820   20.7450   17.8850 C.2   295  HIS295      0.2595
    109  O         31.6480   21.1880   17.0980 O.2   295  HIS295     -0.2718
    110  CB        33.8060   22.5160   18.9900 C.3   295  HIS295      0.0759
    111  CG        33.9470   23.5030   20.1070 C.ar  295  HIS295      0.0818
    112  ND1       32.9620   24.4130   20.4270 N.ar  295  HIS295     -0.2268
    113  CD2       34.9750   23.7480   20.9550 C.ar  295  HIS295      0.1154
    114  CE1       33.3790   25.1760   21.4230 C.ar  295  HIS295      0.1986
    115  NE2       34.5970   24.7930   21.7620 N.ar  295  HIS295     -0.2212
    116  N         33.2070   19.6630   17.6240 N.am  296  GLU296     -0.1979
    117  CA        33.0560   18.9510   16.3600 C.3   296  GLU296      0.1602
    118  C         31.7870   18.0950   16.3300 C.2   296  GLU296      0.2287
    119  O         31.8010   16.9250   16.7010 O.2   296  GLU296     -0.2864
    120  CB        34.3080   18.1010   16.0930 C.3   296  GLU296      0.0415
    121  CG        34.5600   17.8250   14.6170 C.3   296  GLU296      0.1163
    122  CD        33.6690   16.7300   14.0660 C.2   296  GLU296      0.3649
    123  OE1       33.9270   15.5470   14.3890 O.co2 296  GLU296     -0.2457
    124  OE2       32.7130   17.0500   13.3170 O.co2 296  GLU296     -0.2457
    125  N         33.9410   23.3450   24.9470 N.3   319  GLY319     -0.1210
    126  CA        34.9550   24.2080   25.5310 C.3   319  GLY319      0.1956
    127  C         35.2410   24.0670   27.0150 C.2   319  GLY319      0.2612
    128  O         35.1610   22.9770   27.5780 O.2   319  GLY319     -0.2717
    129  N         35.5890   25.1920   27.6380 N.am  320  SER320     -0.1952
    130  CA        35.9090   25.2620   29.0640 C.3   320  SER320      0.1924
    131  C         36.4930   26.6430   29.3690 C.2   320  SER320      0.2314
    132  O         37.3560   27.1230   28.6340 O.2   320  SER320     -0.2863
    133  CB        36.9320   24.1880   29.4380 C.3   320  SER320      0.2116
    134  OG        37.3160   24.3020   30.7990 O.3   320  SER320     -0.2180
@<TRIPOS>BOND
     1    82    81    2
     2    89    87    1
     3    81    80    1
     4    88    87    1
     5    87    86    2
     6    80    83    1
     7    80    79    1
     8    83    84    1
     9    86    85    1
    10    77    76    2
    11    69    68    2
    12    72    71   ar
    13    79    76   am
    14    76    75    1
    15   124   122   ar
    16    85    84    1
    17    71    70    1
    18    71    73   ar
    19    70    67    1
    20    68    67    1
    21    68    74   am
    22   122   123   ar
    23   122   121    1
    24    75    74    1
    25    75    78    1
    26    67    66    1
    27   121   120    1
    28    66    62   am
    29    60    61    1
    30    62    61    1
    31    62    63    2
    32    61    64    1
    33   120   117    1
    34   118   117    1
    35   118   119    2
    36   117   116    1
    37   109   108    2
    38    64    65    1
    39   116   108   am
    40   108   107    1
    41    36    35    2
    42   110   107    1
    43   110   111    1
    44    34    35    1
    45    34    37    1
    46    34    33    1
    47   107   106    1
    48    35    40   am
    49    37    38    1
    50   105   103    1
    51   101   100    2
    52    38    39    1
    53   111   112   ar
    54   111   113   ar
    55    33    39    1
    56   112   114   ar
    57    40    41    1
    58    97    96    2
    59    41    44    1
    60    41    42    1
    61    99   100    1
    62    99   102    1
    63    99    98    1
    64   103   102    1
    65   103   104    1
    66   113   115   ar
    67    44    45    1
    68   114   115   ar
    69    43    42    2
    70    42    49   am
    71    96    98   am
    72    96    95    1
    73    52    51    2
    74    49    50    1
    75    47    46   ar
    76    51    50    1
    77    95    94    1
    78    45    46    1
    79    46    48   ar
    80    50    53    1
    81    24    23    2
    82    93    92    2
    83    94    92   am
    84    26    25    1
    85    26    27    1
    86    23    25   am
    87    23    22    1
    88    92    91    1
    89    53    54    1
    90    22    21    1
    91    28    27    2
    92    27    29   am
    93   125   126    1
    94    54    55    1
    95   126   127    1
    96    91    90    1
    97    29    30    1
    98    55    56    1
    99    56    57    2
   100    32    31    2
   101    30    31    1
   102   127   128    2
   103   127   129   am
   104   129   130    1
   105    13    14    2
   106    13    12    1
   107    57    59    1
   108    57    58    1
   109   132   131    2
   110    12    11    1
   111    12    15    1
   112   130   131    1
   113   130   133    1
   114    20    19   ar
   115    20    18   ar
   116    19    17   ar
   117    18    16   ar
   118   133   134    1
   119    17    16   ar
   120    16    15    1
   121    10     8   ar
   122    10     9   ar
   123     8     6   ar
   124     9     7   ar
   125     6     7   ar
   126     6     5    1
   127     5     2    1
   128     1     2    1
   129     2     3    1
   130     4     3    2
