@<TRIPOS>MOLECULE
tmp/1sb1B01.pdb
 223 221 0 0 0
SMALL
GASTEIGER

@<TRIPOS>ATOM
      1  N          5.9680   -6.4300   17.3240 N.3    43  HIS43      -0.1241
      2  CA         6.1010   -7.7800   17.8430 C.3    43  HIS43       0.1621
      3  C          6.8690   -7.8380   19.1610 C.2    43  HIS43       0.2264
      4  O          6.8970   -8.8740   19.8140 O.2    43  HIS43      -0.2867
      5  CB         6.7300   -8.7250   16.7920 C.3    43  HIS43       0.0745
      6  CG         8.2240   -8.6580   16.7070 C.ar   43  HIS43       0.0817
      7  ND1        8.8900   -7.8960   15.7740 N.ar   43  HIS43      -0.2268
      8  CD2        9.1850   -9.2850   17.4350 C.ar   43  HIS43       0.1154
      9  CE1       10.1960   -8.0550   15.9260 C.ar   43  HIS43       0.1986
     10  NE2       10.3970   -8.8930   16.9280 N.ar   43  HIS43      -0.2212
     11  N          2.6560  -10.4550   20.3610 N.3    47  TYR47      -0.1241
     12  CA         2.9170  -11.5740   19.4700 C.3    47  TYR47       0.1605
     13  C          2.2280  -12.8300   20.0190 C.2    47  TYR47       0.2264
     14  O          2.8610  -13.7030   20.6150 O.2    47  TYR47      -0.2867
     15  CB         4.4150  -11.8250   19.3070 C.3    47  TYR47       0.0534
     16  CG         4.7080  -12.6790   18.1060 C.ar   47  TYR47      -0.0201
     17  CD1        4.3180  -12.2660   16.8280 C.ar   47  TYR47      -0.0009
     18  CD2        5.2890  -13.9350   18.2480 C.ar   47  TYR47      -0.0009
     19  CE1        4.4860  -13.0990   15.7180 C.ar   47  TYR47       0.0417
     20  CE2        5.4600  -14.7760   17.1510 C.ar   47  TYR47       0.0417
     21  CZ         5.0510  -14.3490   15.8880 C.ar   47  TYR47       0.1957
     22  OH         5.1760  -15.1920   14.8070 O.3    47  TYR47      -0.2866
     23  N          3.3480  -16.5790   20.5980 N.3    50  TRP50      -0.1241
     24  CA         4.2240  -16.8930   21.7220 C.3    50  TRP50       0.1605
     25  C          3.6540  -16.3720   23.0290 C.2    50  TRP50       0.2264
     26  O          4.3790  -16.2180   24.0120 O.2    50  TRP50      -0.2867
     27  CB         5.6070  -16.2810   21.4900 C.3    50  TRP50       0.0550
     28  CG         6.3400  -16.9160   20.3590 C.ar   50  TRP50       0.0003
     29  CD1        5.8870  -17.9190   19.5460 C.ar   50  TRP50       0.0946
     30  CD2        7.6720  -16.6210   19.9250 C.ar   50  TRP50       0.0152
     31  NE1        6.8540  -18.2680   18.6360 N.ar   50  TRP50      -0.2442
     32  CE2        7.9620  -17.4870   18.8450 C.ar   50  TRP50       0.0810
     33  CE3        8.6510  -15.7090   20.3450 C.ar   50  TRP50       0.0012
     34  CZ2        9.1910  -17.4720   18.1790 C.ar   50  TRP50       0.0191
     35  CZ3        9.8790  -15.6940   19.6820 C.ar   50  TRP50       0.0001
     36  CH2       10.1360  -16.5720   18.6090 C.ar   50  TRP50       0.0015
     37  N          2.7840  -13.4730   23.8600 N.3    52  LYS52      -0.1245
     38  CA         3.3880  -12.2200   24.2880 C.3    52  LYS52       0.1561
     39  C          2.3630  -11.1130   24.0990 C.2    52  LYS52       0.2260
     40  O          1.8290  -10.9390   23.0020 O.2    52  LYS52      -0.2867
     41  CB         4.6400  -11.9030   23.4690 C.3    52  LYS52       0.0271
     42  CG         5.2300  -10.5450   23.8150 C.3    52  LYS52       0.0035
     43  CD         6.3460  -10.1350   22.8700 C.3    52  LYS52       0.0206
     44  CE         7.5370  -11.0740   22.9560 C.3    52  LYS52       0.1093
     45  NZ         8.5570  -10.6950   21.9450 N.3    52  LYS52      -0.1314
     46  N          0.3840   -9.7420   12.8030 N.3    92  TRP92      -0.1241
     47  CA         1.1550  -10.7470   13.5280 C.3    92  TRP92       0.1605
     48  C          0.7850  -12.1450   13.0830 C.2    92  TRP92       0.2264
     49  O          1.5160  -13.1010   13.3480 O.2    92  TRP92      -0.2867
     50  CB         0.9170  -10.6470   15.0330 C.3    92  TRP92       0.0550
     51  CG        -0.5200  -10.6030   15.4350 C.ar   92  TRP92       0.0003
     52  CD1       -1.2680   -9.4810   15.6680 C.ar   92  TRP92       0.0946
     53  CD2       -1.3820  -11.7210   15.6940 C.ar   92  TRP92       0.0152
     54  NE1       -2.5370   -9.8290   16.0630 N.ar   92  TRP92      -0.2442
     55  CE2       -2.6380  -11.2000   16.0860 C.ar   92  TRP92       0.0810
     56  CE3       -1.2160  -13.1190   15.6350 C.ar   92  TRP92       0.0012
     57  CZ2       -3.7300  -12.0200   16.4230 C.ar   92  TRP92       0.0191
     58  CZ3       -2.3090  -13.9430   15.9720 C.ar   92  TRP92       0.0001
     59  CH2       -3.5470  -13.3820   16.3590 C.ar   92  TRP92       0.0015
     60  N          0.4630  -13.3030    9.9310 N.3    94  GLU94      -0.1231
     61  CA         1.1830  -13.8350    8.7970 C.3    94  GLU94       0.1699
     62  C          2.6600  -13.5290    8.6270 C.2    94  GLU94       0.2592
     63  O          3.5030  -14.4120    8.8010 O.2    94  GLU94      -0.2718
     64  CB         0.4540  -13.4500    7.5020 C.3    94  GLU94       0.0402
     65  CG         1.2580  -13.7420    6.2420 C.3    94  GLU94       0.1161
     66  CD         0.5950  -13.2460    4.9700 C.2    94  GLU94       0.3649
     67  OE1       -0.2070  -12.2830    5.0430 O.co2  94  GLU94      -0.2457
     68  OE2        0.8940  -13.8100    3.8910 O.co2  94  GLU94      -0.2457
     69  N          2.9720  -12.2770    8.3010 N.am   95  ASN95      -0.1960
     70  CA         4.3490  -11.8890    7.9950 C.3    95  ASN95       0.1819
     71  C          4.8880  -10.6550    8.7120 C.2    95  ASN95       0.2621
     72  O          5.8510  -10.0480    8.2430 O.2    95  ASN95      -0.2715
     73  CB         4.4260  -11.6390    6.4960 C.3    95  ASN95       0.1195
     74  CG         3.4280  -10.5880    6.0570 C.2    95  ASN95       0.2630
     75  OD1        2.7070  -10.0180    6.8930 O.2    95  ASN95      -0.2716
     76  ND2        3.3730  -10.3160    4.7570 N.am   95  ASN95      -0.0877
     77  N          4.2750  -10.2830    9.8290 N.am   96  LEU96      -0.1977
     78  CA         4.7050   -9.1090   10.5900 C.3    96  LEU96       0.1596
     79  C          4.6050   -7.8080    9.8020 C.2    96  LEU96       0.2287
     80  O          5.3810   -6.8680   10.0310 O.2    96  LEU96      -0.2864
     81  CB         6.1450   -9.2780   11.0890 C.3    96  LEU96       0.0297
     82  CG         6.3850  -10.4120   12.0890 C.3    96  LEU96       0.0022
     83  CD1        7.8200  -10.3360   12.6060 C.3    96  LEU96       0.0001
     84  CD2        5.4000  -10.3090   13.2380 C.3    96  LEU96       0.0001
     85  N         23.4710  -17.1280   16.3320 N.3   146  GLU146     -0.1245
     86  CA        22.1480  -17.7360   16.2570 C.3   146  GLU146      0.1567
     87  C         21.9740  -18.7960   17.3360 C.2   146  GLU146      0.2260
     88  O         20.8670  -18.9840   17.8370 O.2   146  GLU146     -0.2867
     89  CB        21.9070  -18.3710   14.8850 C.3   146  GLU146      0.0388
     90  CG        20.4490  -18.7530   14.6620 C.3   146  GLU146      0.1160
     91  CD        20.2100  -19.4570   13.3390 C.2   146  GLU146      0.3649
     92  OE1       20.8060  -19.0480   12.3240 O.co2 146  GLU146     -0.2457
     93  OE2       19.4090  -20.4150   13.3110 O.co2 146  GLU146     -0.2457
     94  N          8.4060  -16.2720    2.6790 N.3   171  ILE171     -0.1245
     95  CA         7.4710  -15.3290    3.2940 C.3   171  ILE171      0.1561
     96  C          7.0530  -14.2200    2.3300 C.2   171  ILE171      0.2260
     97  O          7.8530  -13.7660    1.5060 O.2   171  ILE171     -0.2867
     98  CB         8.0930  -14.7270    4.5920 C.3   171  ILE171      0.0252
     99  CG1        8.2190  -15.8360    5.6390 C.3   171  ILE171      0.0019
    100  CG2        7.2270  -13.5880    5.1360 C.3   171  ILE171      0.0019
    101  CD1        9.2340  -15.5580    6.6820 C.3   171  ILE171      0.0001
    102  N         24.3710   -9.2740   10.8530 N.3   191  ASP191     -0.1225
    103  CA        22.9170   -9.3280   10.8730 C.3   191  ASP191      0.1805
    104  C         22.4450   -9.0590   12.2880 C.2   191  ASP191      0.2598
    105  O         23.2350   -9.1120   13.2360 O.2   191  ASP191     -0.2718
    106  CB        22.4640  -10.7320   10.4380 C.3   191  ASP191      0.1424
    107  CG        20.9620  -10.8400   10.2100 C.2   191  ASP191      0.3668
    108  OD1       20.2750   -9.8030   10.0680 O.co2 191  ASP191     -0.2456
    109  OD2       20.4620  -11.9860   10.1480 O.co2 191  ASP191     -0.2456
    110  N         21.1630   -8.7360   12.4150 N.am  192  ALA192     -0.1966
    111  CA        20.5630   -8.5320   13.7090 C.3   192  ALA192      0.1728
    112  C         20.2350   -9.9600   14.1480 C.2   192  ALA192      0.2616
    113  O         20.2040  -10.8720   13.3210 O.2   192  ALA192     -0.2715
    114  CB        19.2760   -7.7210   13.5760 C.3   192  ALA192      0.0334
    115  N         19.9920  -10.1560   15.4350 N.am  193  CYS193     -0.1954
    116  CA        19.6470  -11.4850   15.9320 C.3   193  CYS193      0.1843
    117  C         18.6520  -11.3220   17.0810 C.2   193  CYS193      0.2625
    118  O         18.1620  -10.2140   17.3280 O.2   193  CYS193     -0.2714
    119  CB        20.9180  -12.2190   16.3880 C.3   193  CYS193      0.0997
    120  SG        20.7520  -14.0410   16.4800 S.3   193  CYS193     -0.0797
    121  N         18.3410  -12.4140   17.7780 N.am  194  GLU194     -0.1977
    122  CA        17.3990  -12.3550   18.8970 C.3   194  GLU194      0.1602
    123  C         17.8290  -11.2990   19.9180 C.2   194  GLU194      0.2287
    124  O         18.9870  -11.2650   20.3290 O.2   194  GLU194     -0.2864
    125  CB        17.2970  -13.7290   19.5820 C.3   194  GLU194      0.0415
    126  CG        16.1050  -13.8640   20.5250 C.3   194  GLU194      0.1163
    127  CD        16.2160  -12.9880   21.7590 C.2   194  GLU194      0.3649
    128  OE1       17.2010  -13.1440   22.5100 O.co2 194  GLU194     -0.2457
    129  OE2       15.3160  -12.1480   21.9810 O.co2 194  GLU194     -0.2457
    130  N         15.5720   -7.0960   17.9850 N.3   197  SER197     -0.1217
    131  CA        14.2540   -6.6880   17.4960 C.3   197  SER197      0.1889
    132  C         13.8440   -5.3450   18.0780 C.2   197  SER197      0.2288
    133  O         14.0940   -5.0780   19.2520 O.2   197  SER197     -0.2866
    134  CB        13.1830   -7.7190   17.8980 C.3   197  SER197      0.2089
    135  OG        13.3310   -8.9400   17.2100 O.3   197  SER197     -0.2183
    136  N         14.3360   -3.0630   13.1960 N.3   217  VAL217     -0.1231
    137  CA        14.6740   -4.4870   13.1240 C.3   217  VAL217      0.1692
    138  C         13.3750   -5.2520   13.3360 C.2   217  VAL217      0.2593
    139  O         12.7700   -5.1700   14.4070 O.2   217  VAL217     -0.2718
    140  CB        15.6820   -4.9080   14.2350 C.3   217  VAL217      0.0266
    141  CG1       16.0250   -6.4030   14.0960 C.3   217  VAL217      0.0020
    142  CG2       16.9360   -4.0720   14.1380 C.3   217  VAL217      0.0020
    143  N         12.9610   -6.0090   12.3240 N.am  218  SER218     -0.1938
    144  CA        11.6940   -6.7360   12.3870 C.3   218  SER218      0.2055
    145  C         11.8410   -8.2590   12.4340 C.2   218  SER218      0.2643
    146  O         11.4170   -8.8920   13.3950 O.2   218  SER218     -0.2714
    147  CB        10.8110   -6.3130   11.1930 C.3   218  SER218      0.2130
    148  OG         9.5230   -6.9080   11.2490 O.3   218  SER218     -0.2179
    149  N         12.4370   -8.8590   11.4100 N.am  219  TRP219     -0.1959
    150  CA        12.5970  -10.3100   11.4230 C.3   219  TRP219      0.1771
    151  C         13.6760  -10.8410   10.4900 C.2   219  TRP219      0.2620
    152  O         14.2260  -10.1180    9.6480 O.2   219  TRP219     -0.2715
    153  CB        11.2680  -11.0060   11.0830 C.3   219  TRP219      0.0590
    154  CG        10.7230  -10.6650    9.7160 C.ar  219  TRP219      0.0006
    155  CD1        9.9480   -9.5930    9.3880 C.ar  219  TRP219      0.0946
    156  CD2       10.9150  -11.4090    8.5010 C.ar  219  TRP219      0.0152
    157  NE1        9.6390   -9.6210    8.0410 N.ar  219  TRP219     -0.2442
    158  CE2       10.2190  -10.7270    7.4760 C.ar  219  TRP219      0.0810
    159  CE3       11.6090  -12.5870    8.1780 C.ar  219  TRP219      0.0012
    160  CZ2       10.1910  -11.1860    6.1500 C.ar  219  TRP219      0.0191
    161  CZ3       11.5840  -13.0430    6.8540 C.ar  219  TRP219      0.0001
    162  CH2       10.8790  -12.3410    5.8600 C.ar  219  TRP219      0.0015
    163  N         13.9650  -12.1270   10.6540 N.am  220  GLY220     -0.1940
    164  CA        14.9590  -12.7910    9.8360 C.3   220  GLY220      0.2014
    165  C         14.8400  -14.2760   10.1280 C.2   220  GLY220      0.2639
    166  O         14.4380  -14.6690   11.2270 O.2   220  GLY220     -0.2714
    167  N         15.1710  -15.1080    9.1520 N.am  221  GLU221     -0.1963
    168  CA        15.1010  -16.5450    9.3440 C.3   221  GLU221      0.1733
    169  C         16.4960  -16.9920    9.7780 C.2   221  GLU221      0.2617
    170  O         17.4010  -17.1920    8.9640 O.2   221  GLU221     -0.2715
    171  CB        14.6440  -17.1960    8.0390 C.3   221  GLU221      0.0429
    172  CG        13.3850  -16.5120    7.5050 C.3   221  GLU221      0.1163
    173  CD        12.8970  -17.0570    6.1760 C.2   221  GLU221      0.3649
    174  OE1       12.1820  -18.0850    6.1810 O.co2 221  GLU221     -0.2457
    175  OE2       13.2290  -16.4520    5.1340 O.co2 221  GLU221     -0.2457
    176  N         16.6560  -17.1280   11.0870 N.am  222  GLY222     -0.1940
    177  CA        17.9440  -17.4890   11.6420 C.3   222  GLY222      0.2014
    178  C         18.7110  -16.1800   11.7430 C.2   222  GLY222      0.2639
    179  O         18.1180  -15.1050   11.5960 O.2   222  GLY222     -0.2714
    180  N         20.0120  -16.2500   11.9870 N.am  223  CYS223     -0.1967
    181  CA        20.8240  -15.0450   12.1020 C.3   223  CYS223      0.1712
    182  C         22.0860  -15.1660   11.2780 C.2   223  CYS223      0.2296
    183  O         22.8670  -16.1020   11.4620 O.2   223  CYS223     -0.2864
    184  CB        21.2260  -14.7840   13.5610 C.3   223  CYS223      0.0983
    185  SG        19.8530  -14.5510   14.7280 S.3   223  CYS223     -0.0798
    186  N         22.6080  -16.0620    8.2310 N.3   225  ARG225     -0.1245
    187  CA        22.7320  -17.2610    7.4050 C.3   225  ARG225      0.1563
    188  C         23.0190  -16.8390    5.9860 C.2   225  ARG225      0.2260
    189  O         22.4890  -15.8300    5.5240 O.2   225  ARG225     -0.2867
    190  CB        21.4410  -18.0830    7.4140 C.3   225  ARG225      0.0307
    191  CG        21.1720  -18.8150    8.7030 C.3   225  ARG225      0.0489
    192  CD        19.9060  -19.6420    8.5780 C.3   225  ARG225      0.2205
    193  NE        19.5180  -20.2720    9.8300 N.pl3 225  ARG225     -0.0865
    194  CZ        18.3830  -20.9430   10.0040 C.cat 225  ARG225      0.5346
    195  NH1       17.5290  -21.0760    8.9980 N.pl3 225  ARG225      0.1354
    196  NH2       18.0820  -21.4510   11.1900 N.pl3 225  ARG225      0.1354
    197  N         18.2150   -9.7140    6.6170 N.3   230  GLY230     -0.1210
    198  CA        17.4360   -9.2350    7.7330 C.3   230  GLY230      0.1956
    199  C         16.3580   -8.3530    7.1610 C.2   230  GLY230      0.2612
    200  O         16.5870   -7.6480    6.1680 O.2   230  GLY230     -0.2717
    201  N         15.1710   -8.4130    7.7530 N.am  231  PHE231     -0.1962
    202  CA        14.0660   -7.5870    7.2840 C.3   231  PHE231      0.1771
    203  C         13.7570   -6.4950    8.2910 C.2   231  PHE231      0.2619
    204  O         13.8180   -6.7170    9.5050 O.2   231  PHE231     -0.2715
    205  CB        12.8280   -8.4390    6.9840 C.3   231  PHE231      0.0574
    206  CG        12.9480   -9.2130    5.7090 C.ar  231  PHE231     -0.0200
    207  CD1       13.7520  -10.3500    5.6400 C.ar  231  PHE231     -0.0042
    208  CD2       12.3190   -8.7620    4.5490 C.ar  231  PHE231     -0.0042
    209  CE1       13.9320  -11.0300    4.4230 C.ar  231  PHE231     -0.0003
    210  CE2       12.4950   -9.4330    3.3350 C.ar  231  PHE231     -0.0003
    211  CZ        13.2980  -10.5620    3.2780 C.ar  231  PHE231     -0.0000
    212  N         13.4370   -5.3160    7.7600 N.am  232  TYR232     -0.1974
    213  CA        13.1670   -4.1420    8.5690 C.3   232  TYR232      0.1639
    214  C         11.8860   -3.4380    8.2030 C.2   232  TYR232      0.2290
    215  O         11.5230   -3.3660    7.0350 O.2   232  TYR232     -0.2864
    216  CB        14.3170   -3.1400    8.4100 C.3   232  TYR232      0.0560
    217  CG        15.6640   -3.7380    8.7120 C.ar  232  TYR232     -0.0198
    218  CD1       16.3070   -4.5870    7.7950 C.ar  232  TYR232     -0.0009
    219  CD2       16.2620   -3.5300    9.9530 C.ar  232  TYR232     -0.0009
    220  CE1       17.4990   -5.2170    8.1220 C.ar  232  TYR232      0.0417
    221  CE2       17.4520   -4.1500   10.2830 C.ar  232  TYR232      0.0417
    222  CZ        18.0610   -4.9930    9.3710 C.ar  232  TYR232      0.1957
    223  OH        19.2180   -5.6230    9.7390 O.3   232  TYR232     -0.2866
@<TRIPOS>BOND
     1    97    96    2
     2    96    95    1
     3    94    95    1
     4   211   210   ar
     5   211   209   ar
     6    95    98    1
     7   210   208   ar
     8    68    66   ar
     9   209   207   ar
    10   208   206   ar
    11    98   100    1
    12    98    99    1
    13    76    74   am
    14    66    67   ar
    15    66    65    1
    16   175   173   ar
    17   189   188    2
    18    99   101    1
    19   207   206   ar
    20   206   205    1
    21   162   160   ar
    22   162   161   ar
    23   188   187    1
    24    74    73    1
    25    74    75    2
    26   160   158   ar
    27   200   199    2
    28   173   174   ar
    29   173   172    1
    30    65    64    1
    31    73    70    1
    32   197   198    1
    33   161   159   ar
    34   205   202    1
    35   215   214    2
    36   199   198    1
    37   199   201   am
    38   202   201    1
    39   202   203    1
    40   187   190    1
    41   187   186    1
    42   190   191    1
    43   158   157   ar
    44   158   156   ar
    45    64    61    1
    46   172   171    1
    47   212   203   am
    48   212   213    1
    49   218   220   ar
    50   218   217   ar
    51    70    69    1
    52    70    71    1
    53   171   168    1
    54   157   155   ar
    55   220   222   ar
    56   159   156   ar
    57   214   213    1
    58    72    71    2
    59   203   204    2
    60    69    62   am
    61   216   213    1
    62   216   217    1
    63   156   154   ar
    64   192   191    1
    65   192   193    1
    66    62    61    1
    67    62    63    2
    68    71    77   am
    69   217   219   ar
    70    61    60    1
    71   170   169    2
    72   195   194    1
    73   167   168    1
    74   167   165   am
    75   168   169    1
    76   222   223    1
    77   222   221   ar
    78   155   154   ar
    79   152   151    2
    80   154   153    1
    81   169   176   am
    82    79    80    2
    83    79    78    1
    84    77    78    1
    85   193   194    2
    86   164   165    1
    87   164   163    1
    88   219   221   ar
    89   194   196    1
    90   108   107   ar
    91   165   166    2
    92   109   107   ar
    93   107   106    1
    94   106   103    1
    95   151   163   am
    96   151   150    1
    97    78    81    1
    98   102   103    1
    99   103   104    1
   100   153   150    1
   101   176   177    1
   102    81    82    1
   103   147   148    1
   104   147   144    1
   105   182   183    2
   106   182   181    1
   107   149   150    1
   108   149   145   am
   109   179   178    2
   110   177   178    1
   111   178   180   am
   112   180   181    1
   113    82    83    1
   114    82    84    1
   115   181   184    1
   116   104   110   am
   117   104   105    2
   118    92    91   ar
   119   143   144    1
   120   143   138   am
   121   144   145    1
   122   110   111    1
   123   145   146    2
   124    46    47    1
   125    48    49    2
   126    48    47    1
   127   137   136    1
   128   137   138    1
   129   137   140    1
   130    93    91   ar
   131   113   112    2
   132   138   139    2
   133    91    90    1
   134    47    50    1
   135   184   185    1
   136   114   111    1
   137   111   112    1
   138   141   140    1
   139   142   140    1
   140   112   115   am
   141    90    89    1
   142   185   120    1
   143    22    21    1
   144    89    86    1
   145    50    51    1
   146   115   116    1
   147    51    52   ar
   148    51    53   ar
   149    56    53   ar
   150    56    58   ar
   151    52    54   ar
   152    53    55   ar
   153    19    21   ar
   154    19    17   ar
   155     7     9   ar
   156     7     6   ar
   157    21    20   ar
   158     9    10   ar
   159   116   119    1
   160   116   117    1
   161    58    59   ar
   162    54    55   ar
   163    55    57   ar
   164    86    85    1
   165    86    87    1
   166    59    57   ar
   167   119   120    1
   168     6     5    1
   169     6     8   ar
   170     5     2    1
   171    17    16   ar
   172    10     8   ar
   173   117   118    2
   174   117   121   am
   175    20    18   ar
   176   135   134    1
   177     1     2    1
   178    87    88    2
   179   131   134    1
   180   131   130    1
   181   131   132    1
   182   121   122    1
   183     2     3    1
   184   132   133    2
   185    16    18   ar
   186    16    15    1
   187    34    36   ar
   188    34    32   ar
   189    36    35   ar
   190    31    32   ar
   191    31    29   ar
   192    32    30   ar
   193   122   125    1
   194   122   123    1
   195     3     4    2
   196    15    12    1
   197    12    13    1
   198    12    11    1
   199    29    28   ar
   200   125   126    1
   201    35    33   ar
   202   123   124    2
   203    30    33   ar
   204    30    28   ar
   205    13    14    2
   206    28    27    1
   207   126   127    1
   208    23    24    1
   209    27    24    1
   210    24    25    1
   211   127   129   ar
   212   127   128   ar
   213    45    44    1
   214    43    44    1
   215    43    42    1
   216    40    39    2
   217    25    26    2
   218    41    42    1
   219    41    38    1
   220    37    38    1
   221    39    38    1
