@<TRIPOS>MOLECULE
tmp/1sb8A01.pdb
 223 215 0 0 0
SMALL
GASTEIGER

@<TRIPOS>ATOM
      1  N         48.1460    1.4390   84.6770 N.3   102  GLY102     -0.1210
      2  CA        46.8450    1.9650   85.0400 C.3   102  GLY102      0.1956
      3  C         46.8590    3.4800   85.1220 C.2   102  GLY102      0.2613
      4  O         47.7630    4.1370   84.6070 O.2   102  GLY102     -0.2717
      5  N         45.8470    4.0280   85.7790 N.am  103  SER103     -0.1938
      6  CA        45.7020    5.4660   85.9550 C.3   103  SER103      0.2055
      7  C         45.2300    6.2250   84.7240 C.2   103  SER103      0.2643
      8  O         45.9330    6.3130   83.7130 O.2   103  SER103     -0.2714
      9  CB        47.0050    6.0960   86.4370 C.3   103  SER103      0.2130
     10  OG        46.8570    7.5040   86.5140 O.3   103  SER103     -0.2179
     11  N         44.0320    6.7860   84.8370 N.am  104  VAL104     -0.1963
     12  CA        43.4360    7.5800   83.7750 C.3   104  VAL104      0.1712
     13  C         44.2610    8.8610   83.5800 C.2   104  VAL104      0.2458
     14  O         44.6390    9.1950   82.4550 O.2   104  VAL104     -0.2730
     15  CB        41.9630    7.9210   84.1230 C.3   104  VAL104      0.0289
     16  CG1       41.4200    9.0060   83.1960 C.3   104  VAL104      0.0023
     17  CG2       41.1140    6.6570   84.0140 C.3   104  VAL104      0.0023
     18  N         44.5620    9.5870   84.6760 N.am  105  PRO105     -0.2727
     19  CA        45.3510   10.8220   84.5680 C.3   105  PRO105      0.1402
     20  C         46.6930   10.6070   83.8640 C.2   105  PRO105      0.2269
     21  O         47.1090   11.4200   83.0390 O.2   105  PRO105     -0.2865
     22  CB        45.5340   11.2470   86.0250 C.3   105  PRO105      0.0296
     23  CG        44.2910   10.7560   86.6740 C.3   105  PRO105      0.0237
     24  CD        44.1070    9.3800   86.0650 C.3   105  PRO105      0.0939
     25  N         38.5730   -3.1470   81.8420 N.3   142  SER142     -0.1202
     26  CA        38.2320   -2.0690   82.7640 C.3   142  SER142      0.2020
     27  C         36.8180   -1.5350   82.6550 C.2   142  SER142      0.2619
     28  O         36.2750   -1.4060   81.5560 O.2   142  SER142     -0.2717
     29  CB        39.2120   -0.9080   82.5800 C.3   142  SER142      0.2103
     30  OG        38.7990    0.2290   83.3170 O.3   142  SER142     -0.2182
     31  N         36.2380   -1.2010   83.8060 N.am  143  SER143     -0.1937
     32  CA        34.8890   -0.6530   83.8530 C.3   143  SER143      0.2055
     33  C         34.8430    0.7410   83.2180 C.2   143  SER143      0.2643
     34  O         33.7650    1.2740   82.9690 O.2   143  SER143     -0.2714
     35  CB        34.3940   -0.5720   85.3030 C.3   143  SER143      0.2130
     36  OG        35.1310    0.3790   86.0500 O.3   143  SER143     -0.2179
     37  N         36.0100    1.3280   82.9620 N.am  144  SER144     -0.1949
     38  CA        36.0740    2.6510   82.3480 C.3   144  SER144      0.1924
     39  C         35.5850    2.5740   80.9010 C.2   144  SER144      0.2314
     40  O         35.3350    3.5950   80.2590 O.2   144  SER144     -0.2863
     41  CB        37.5060    3.1910   82.3720 C.3   144  SER144      0.2116
     42  OG        38.3500    2.4400   81.5200 O.3   144  SER144     -0.2180
     43  N         43.5490    5.9320   78.3850 N.3   166  TYR166     -0.1241
     44  CA        43.5860    4.6740   79.1280 C.3   166  TYR166      0.1605
     45  C         42.3500    3.8330   78.8210 C.2   166  TYR166      0.2264
     46  O         42.4510    2.6270   78.5970 O.2   166  TYR166     -0.2867
     47  CB        43.6470    4.9240   80.6410 C.3   166  TYR166      0.0534
     48  CG        43.4750    3.6590   81.4700 C.ar  166  TYR166     -0.0201
     49  CD1       44.5060    2.7230   81.5840 C.ar  166  TYR166     -0.0009
     50  CD2       42.2690    3.3880   82.1160 C.ar  166  TYR166     -0.0009
     51  CE1       44.3350    1.5400   82.3290 C.ar  166  TYR166      0.0417
     52  CE2       42.0890    2.2190   82.8570 C.ar  166  TYR166      0.0417
     53  CZ        43.1250    1.2990   82.9600 C.ar  166  TYR166      0.1957
     54  OH        42.9430    0.1410   83.6900 O.3   166  TYR166     -0.2866
     55  N         37.2910   -5.0040   85.5400 N.3   193  TYR193     -0.1241
     56  CA        37.3660   -4.7080   86.9630 C.3   193  TYR193      0.1605
     57  C         36.7250   -3.3640   87.2670 C.2   193  TYR193      0.2264
     58  O         36.7150   -2.4690   86.4240 O.2   193  TYR193     -0.2867
     59  CB        38.8140   -4.6330   87.4300 C.3   193  TYR193      0.0534
     60  CG        39.6680   -5.8600   87.2220 C.ar  193  TYR193     -0.0201
     61  CD1       41.0550   -5.7600   87.2770 C.ar  193  TYR193     -0.0009
     62  CD2       39.1050   -7.1210   87.0320 C.ar  193  TYR193     -0.0009
     63  CE1       41.8640   -6.8760   87.1540 C.ar  193  TYR193      0.0417
     64  CE2       39.9170   -8.2540   86.9070 C.ar  193  TYR193      0.0417
     65  CZ        41.2920   -8.1160   86.9710 C.ar  193  TYR193      0.1957
     66  OH        42.1120   -9.2060   86.8630 O.3   193  TYR193     -0.2866
     67  N         37.2270   -0.5520   90.0920 N.3   195  ASN195     -0.1240
     68  CA        38.0220   -0.0380   91.2160 C.3   195  ASN195      0.1653
     69  C         38.3490   -1.0430   92.3190 C.2   195  ASN195      0.2266
     70  O         37.7080   -1.0760   93.3730 O.2   195  ASN195     -0.2867
     71  CB        37.3310    1.1830   91.8270 C.3   195  ASN195      0.1155
     72  CG        37.1670    2.3050   90.8260 C.2   195  ASN195      0.2627
     73  OD1       36.4010    2.1830   89.8700 O.2   195  ASN195     -0.2716
     74  ND2       37.9020    3.3950   91.0240 N.am  195  ASN195     -0.0877
     75  N         50.2220    9.0570   90.8580 N.3   207  TYR207     -0.1227
     76  CA        49.0620    8.3940   90.2640 C.3   207  TYR207      0.1736
     77  C         48.3960    7.3400   91.1460 C.2   207  TYR207      0.2595
     78  O         47.6840    6.4720   90.6450 O.2   207  TYR207     -0.2718
     79  CB        49.4600    7.7580   88.9220 C.3   207  TYR207      0.0548
     80  CG        49.9610    8.7550   87.8940 C.ar  207  TYR207     -0.0200
     81  CD1       49.1710    9.8360   87.5050 C.ar  207  TYR207     -0.0009
     82  CD2       51.2240    8.6210   87.3140 C.ar  207  TYR207     -0.0009
     83  CE1       49.6210   10.7600   86.5680 C.ar  207  TYR207      0.0417
     84  CE2       51.6870    9.5450   86.3720 C.ar  207  TYR207      0.0417
     85  CZ        50.8760   10.6130   86.0070 C.ar  207  TYR207      0.1957
     86  OH        51.3130   11.5420   85.0880 O.3   207  TYR207     -0.2866
     87  N         48.6140    7.4160   92.4550 N.am  208  ALA208     -0.1966
     88  CA        48.0260    6.4510   93.3840 C.3   208  ALA208      0.1728
     89  C         46.4970    6.4800   93.3730 C.2   208  ALA208      0.2616
     90  O         45.8950    7.5460   93.2690 O.2   208  ALA208     -0.2715
     91  CB        48.5380    6.7150   94.7950 C.3   208  ALA208      0.0334
     92  N         45.8750    5.3040   93.4750 N.am  209  ALA209     -0.1963
     93  CA        44.4170    5.2020   93.4970 C.3   209  ALA209      0.1728
     94  C         43.8930    5.9230   94.7350 C.2   209  ALA209      0.2616
     95  O         44.6220    6.1070   95.7120 O.2   209  ALA209     -0.2715
     96  CB        43.9750    3.7340   93.5130 C.3   209  ALA209      0.0334
     97  N         42.6230    6.3140   94.6950 N.am  210  VAL210     -0.1977
     98  CA        42.0100    7.0580   95.7910 C.3   210  VAL210      0.1596
     99  C         42.1100    6.4500   97.2050 C.2   210  VAL210      0.2287
    100  O         42.4340    7.1590   98.1570 O.2   210  VAL210     -0.2864
    101  CB        40.5220    7.3710   95.4700 C.3   210  VAL210      0.0276
    102  CG1       39.6870    6.0940   95.5060 C.3   210  VAL210      0.0022
    103  CG2       39.9870    8.4190   96.4490 C.3   210  VAL210      0.0022
    104  N         45.8250    6.4370   98.4150 N.3   213  LYS213     -0.1231
    105  CA        46.1840    7.8420   98.5370 C.3   213  LYS213      0.1693
    106  C         45.5620    8.4700   99.7860 C.2   213  LYS213      0.2592
    107  O         46.2580    9.0680  100.6070 O.2   213  LYS213     -0.2718
    108  CB        45.7210    8.5910   97.2840 C.3   213  LYS213      0.0285
    109  CG        45.9740   10.0930   97.2920 C.3   213  LYS213      0.0035
    110  CD        47.4530   10.4250   97.3510 C.3   213  LYS213      0.0206
    111  CE        47.6900   11.9160   97.1180 C.3   213  LYS213      0.1093
    112  NZ        49.1260   12.2890   97.2910 N.3   213  LYS213     -0.1314
    113  N         44.2510    8.3230   99.9320 N.am  214  TRP214     -0.1976
    114  CA        43.5510    8.8930  101.0780 C.3   214  TRP214      0.1640
    115  C         43.9520    8.2650  102.4070 C.2   214  TRP214      0.2290
    116  O         44.1340    8.9710  103.4010 O.2   214  TRP214     -0.2864
    117  CB        42.0420    8.7720  100.8850 C.3   214  TRP214      0.0576
    118  CG        41.4730    9.7630   99.9150 C.ar  214  TRP214      0.0006
    119  CD1       42.1660   10.6650   99.1470 C.ar  214  TRP214      0.0946
    120  CD2       40.0890    9.9540   99.6030 C.ar  214  TRP214      0.0152
    121  NE1       41.2930   11.4030   98.3770 N.ar  214  TRP214     -0.2442
    122  CE2       40.0130   10.9860   98.6370 C.ar  214  TRP214      0.0810
    123  CE3       38.9030    9.3510  100.0440 C.ar  214  TRP214      0.0012
    124  CZ2       38.7960   11.4270   98.1050 C.ar  214  TRP214      0.0191
    125  CZ3       37.6930    9.7910   99.5150 C.ar  214  TRP214      0.0001
    126  CH2       37.6500   10.8200   98.5550 C.ar  214  TRP214      0.0015
    127  N         42.1070   15.3830   99.3430 N.3   225  TYR225     -0.1227
    128  CA        41.4350   16.1110   98.2750 C.3   225  TYR225      0.1736
    129  C         40.3680   15.2970   97.5560 C.2   225  TYR225      0.2595
    130  O         40.5920   14.1430   97.1870 O.2   225  TYR225     -0.2718
    131  CB        42.4710   16.5970   97.2560 C.3   225  TYR225      0.0548
    132  CG        43.5480   17.4560   97.8710 C.ar  225  TYR225     -0.0200
    133  CD1       43.2970   18.7830   98.2150 C.ar  225  TYR225     -0.0009
    134  CD2       44.8060   16.9280   98.1550 C.ar  225  TYR225     -0.0009
    135  CE1       44.2700   19.5630   98.8310 C.ar  225  TYR225      0.0417
    136  CE2       45.7860   17.6980   98.7730 C.ar  225  TYR225      0.0417
    137  CZ        45.5100   19.0120   99.1100 C.ar  225  TYR225      0.1957
    138  OH        46.4650   19.7680   99.7480 O.3   225  TYR225     -0.2866
    139  N         39.2080   15.9100   97.3610 N.am  226  ILE226     -0.1966
    140  CA        38.1160   15.2680   96.6540 C.3   226  ILE226      0.1727
    141  C         37.9530   16.0120   95.3300 C.2   226  ILE226      0.2616
    142  O         37.7730   17.2320   95.3090 O.2   226  ILE226     -0.2715
    143  CB        36.8070   15.3240   97.4760 C.3   226  ILE226      0.0290
    144  CG1       36.9570   14.4570   98.7300 C.3   226  ILE226      0.0022
    145  CG2       35.6320   14.8510   96.6360 C.3   226  ILE226      0.0023
    146  CD1       35.7110   14.3760   99.5830 C.3   226  ILE226      0.0001
    147  N         38.0480   15.2820   94.2240 N.am  227  ASN227     -0.1972
    148  CA        37.9260   15.9040   92.9130 C.3   227  ASN227      0.1688
    149  C         36.4710   16.0440   92.5040 C.2   227  ASN227      0.2292
    150  O         35.8550   15.1090   91.9970 O.2   227  ASN227     -0.2864
    151  CB        38.7000   15.0980   91.8660 C.3   227  ASN227      0.1181
    152  CG        40.1560   14.9010   92.2440 C.2   227  ASN227      0.2629
    153  OD1       40.7680   15.7670   92.8760 O.2   227  ASN227     -0.2716
    154  ND2       40.7240   13.7680   91.8470 N.am  227  ASN227     -0.0877
    155  N         30.5910   11.6260   93.0890 N.3   232  THR232     -0.1218
    156  CA        31.0770   10.6630   92.1110 C.3   232  THR232      0.1862
    157  C         31.0390    9.3200   92.8460 C.2   232  THR232      0.2287
    158  O         31.3960    9.2580   94.0260 O.2   232  THR232     -0.2866
    159  CB        32.5270   11.0030   91.7060 C.3   232  THR232      0.1770
    160  OG1       32.5410   12.2620   91.0220 O.3   232  THR232     -0.2211
    161  CG2       33.1140    9.9170   90.8030 C.3   232  THR232      0.0375
    162  N         31.5650    4.7810   92.8760 N.3   234  ARG234     -0.1245
    163  CA        32.2550    3.6080   92.3570 C.3   234  ARG234      0.1563
    164  C         31.7580    2.3190   93.0010 C.2   234  ARG234      0.2260
    165  O         31.1170    2.3410   94.0530 O.2   234  ARG234     -0.2867
    166  CB        33.7610    3.7360   92.6190 C.3   234  ARG234      0.0307
    167  CG        34.4290    4.8850   91.8830 C.3   234  ARG234      0.0489
    168  CD        34.4710    4.6000   90.3870 C.3   234  ARG234      0.2205
    169  NE        35.2260    5.6080   89.6520 N.pl3 234  ARG234     -0.0865
    170  CZ        34.7110    6.7240   89.1430 C.cat 234  ARG234      0.5346
    171  NH1       33.4190    6.9970   89.2800 N.pl3 234  ARG234      0.1354
    172  NH2       35.4960    7.5640   88.4800 N.pl3 234  ARG234      0.1354
    173  N         32.2600    9.0680   96.7850 N.3   271  LEU271     -0.1245
    174  CA        33.5390    9.4470   97.3600 C.3   271  LEU271      0.1561
    175  C         33.3180   10.0390   98.7520 C.2   271  LEU271      0.2260
    176  O         34.1430    9.8510   99.6480 O.2   271  LEU271     -0.2867
    177  CB        34.2520   10.4610   96.4640 C.3   271  LEU271      0.0270
    178  CG        34.7450    9.9140   95.1230 C.3   271  LEU271      0.0019
    179  CD1       35.4560   11.0080   94.3460 C.3   271  LEU271      0.0001
    180  CD2       35.6890    8.7470   95.3710 C.3   271  LEU271      0.0001
    181  N         37.9870   20.1020   95.2680 N.3   296  ARG296     -0.1245
    182  CA        38.5970   20.8410   94.1710 C.3   296  ARG296      0.1563
    183  C         37.9310   20.4200   92.8660 C.2   296  ARG296      0.2260
    184  O         36.9240   19.7210   92.8910 O.2   296  ARG296     -0.2867
    185  CB        40.1100   20.5940   94.1250 C.3   296  ARG296      0.0307
    186  CG        40.5270   19.1510   93.9170 C.3   296  ARG296      0.0489
    187  CD        42.0370   19.0100   94.0140 C.3   296  ARG296      0.2205
    188  NE        42.4600   17.6240   93.8420 N.pl3 296  ARG296     -0.0865
    189  CZ        43.7120   17.2020   93.9770 C.cat 296  ARG296      0.5346
    190  NH1       44.6760   18.0580   94.2870 N.pl3 296  ARG296      0.1354
    191  NH2       43.9990   15.9200   93.8060 N.pl3 296  ARG296      0.1354
    192  N         38.2740   15.6840   88.0690 N.3   299  ARG299     -0.1245
    193  CA        39.4670   15.2750   87.3430 C.3   299  ARG299      0.1563
    194  C         39.1070   14.9770   85.8890 C.2   299  ARG299      0.2260
    195  O         38.0340   14.4460   85.6010 O.2   299  ARG299     -0.2867
    196  CB        40.0960   14.0450   88.0070 C.3   299  ARG299      0.0307
    197  CG        41.5150   13.7520   87.5410 C.3   299  ARG299      0.0489
    198  CD        42.2160   12.7610   88.4680 C.3   299  ARG299      0.2205
    199  NE        41.7260   11.3940   88.3010 N.pl3 299  ARG299     -0.0865
    200  CZ        42.0880   10.3710   89.0690 C.cat 299  ARG299      0.5346
    201  NH1       42.9440   10.5550   90.0690 N.pl3 299  ARG299      0.1354
    202  NH2       41.5960    9.1610   88.8360 N.pl3 299  ARG299      0.1354
    203  N         37.4920   11.5860   83.8970 N.3   302  ASP302     -0.1225
    204  CA        36.8490   10.8270   84.9640 C.3   302  ASP302      0.1805
    205  C         35.3920   10.4410   84.7290 C.2   302  ASP302      0.2597
    206  O         34.5770   11.2560   84.2960 O.2   302  ASP302     -0.2718
    207  CB        36.9520   11.6060   86.2780 C.3   302  ASP302      0.1424
    208  CG        36.6350   10.7490   87.4890 C.2   302  ASP302      0.3668
    209  OD1       37.1740    9.6250   87.5700 O.co2 302  ASP302     -0.2456
    210  OD2       35.8600   11.2020   88.3600 O.co2 302  ASP302     -0.2456
    211  N         35.0800    9.1820   85.0240 N.am  303  VAL303     -0.1980
    212  CA        33.7250    8.6570   84.8970 C.3   303  VAL303      0.1595
    213  C         32.9420    9.1280   86.1290 C.2   303  VAL303      0.2287
    214  O         33.4770    9.1340   87.2430 O.2   303  VAL303     -0.2864
    215  CB        33.7470    7.1090   84.8410 C.3   303  VAL303      0.0276
    216  CG1       32.3620    6.5460   85.1300 C.3   303  VAL303      0.0022
    217  CG2       34.2270    6.6500   83.4630 C.3   303  VAL303      0.0022
    218  N         29.7310    4.6530   88.5630 N.3   306  SER306     -0.1217
    219  CA        30.1020    3.3080   88.1540 C.3   306  SER306      0.1889
    220  C         29.5390    2.2800   89.1340 C.2   306  SER306      0.2288
    221  O         29.9830    2.1900   90.2800 O.2   306  SER306     -0.2866
    222  CB        31.6250    3.1890   88.0910 C.3   306  SER306      0.2089
    223  OG        32.0240    1.9180   87.6240 O.3   306  SER306     -0.2183
@<TRIPOS>BOND
     1    43    44    1
     2    46    45    2
     3    45    44    1
     4    44    47    1
     5    40    39    2
     6    47    48    1
     7    39    38    1
     8    48    49   ar
     9    48    50   ar
    10    42    41    1
    11    28    27    2
    12    49    51   ar
    13    25    26    1
    14    50    52   ar
    15    51    53   ar
    16    38    41    1
    17    38    37    1
    18    14    13    2
    19    29    26    1
    20    29    30    1
    21    27    26    1
    22    27    31   am
    23    52    53   ar
    24    53    54    1
    25    37    33   am
    26    34    33    2
    27    21    20    2
    28    16    15    1
    29    33    32    1
    30   217   215    1
    31    13    12    1
    32    13    18   am
    33     8     7    2
    34    12    15    1
    35    12    11    1
    36    31    32    1
    37    32    35    1
    38    20    19    1
    39   203   204    1
    40    17    15    1
    41   206   205    2
    42    19    18    1
    43    19    22    1
    44     4     3    2
    45    18    24    1
    46     1     2    1
    47     7    11   am
    48     7     6    1
    49   205   204    1
    50   205   211   am
    51   215   212    1
    52   215   216    1
    53   212   211    1
    54   212   213    1
    55   204   207    1
    56     2     3    1
    57    86    85    1
    58     3     5   am
    59    35    36    1
    60    55    56    1
    61   195   194    2
    62     5     6    1
    63   194   193    1
    64     6     9    1
    65    85    84   ar
    66    85    83   ar
    67    22    23    1
    68    24    23    1
    69   213   214    2
    70   207   208    1
    71    84    82   ar
    72    58    57    2
    73     9    10    1
    74    83    81   ar
    75    66    65    1
    76    64    65   ar
    77    64    62   ar
    78    56    57    1
    79    56    59    1
    80    65    63   ar
    81    62    60   ar
    82    63    61   ar
    83    60    61   ar
    84    60    59    1
    85    82    80   ar
    86   193   196    1
    87   193   192    1
    88   208   209   ar
    89   208   210   ar
    90    81    80   ar
    91   197   196    1
    92   197   198    1
    93   223   222    1
    94    80    79    1
    95   222   219    1
    96   219   218    1
    97   219   220    1
    98   199   198    1
    99   199   200    2
   100   172   170    1
   101   202   200    1
   102    79    76    1
   103   200   201    1
   104   220   221    2
   105   170   171    1
   106   170   169    2
   107   169   168    1
   108    73    72    2
   109    67    68    1
   110    76    75    1
   111    76    77    1
   112   168   167    1
   113    78    77    2
   114   161   159    1
   115    72    74   am
   116    72    71    1
   117   160   159    1
   118    77    87   am
   119    68    71    1
   120    68    69    1
   121   159   156    1
   122   154   152   am
   123   151   152    1
   124   151   148    1
   125   167   166    1
   126   150   149    2
   127   156   157    1
   128   156   155    1
   129   152   153    2
   130    69    70    2
   131   163   166    1
   132   163   162    1
   133   163   164    1
   134    87    88    1
   135   149   148    1
   136   157   158    2
   137   183   184    2
   138   183   182    1
   139   148   147    1
   140   164   165    2
   141    90    89    2
   142    89    88    1
   143    89    92   am
   144    88    91    1
   145    92    93    1
   146    93    96    1
   147    93    94    1
   148   191   189    1
   149   188   189    2
   150   188   187    1
   151   186   187    1
   152   186   185    1
   153   189   190    1
   154   185   182    1
   155   182   181    1
   156   147   141   am
   157   179   178    1
   158    97    94   am
   159    97    98    1
   160    94    95    2
   161   178   180    1
   162   178   177    1
   163   142   141    2
   164   141   140    1
   165   101   102    1
   166   101    98    1
   167   101   103    1
   168    98    99    1
   169   177   174    1
   170   145   143    1
   171   140   139    1
   172   140   143    1
   173   173   174    1
   174   111   112    1
   175   111   110    1
   176   130   129    2
   177    99   100    2
   178   131   132    1
   179   131   128    1
   180   108   109    1
   181   108   105    1
   182   109   110    1
   183   174   175    1
   184   139   129   am
   185   143   144    1
   186   129   128    1
   187   132   134   ar
   188   132   133   ar
   189   124   126   ar
   190   124   122   ar
   191   134   136   ar
   192   133   135   ar
   193   128   127    1
   194   121   122   ar
   195   121   119   ar
   196   104   105    1
   197   105   106    1
   198   126   125   ar
   199   122   120   ar
   200   144   146    1
   201   175   176    2
   202   136   137   ar
   203   135   137   ar
   204   137   138    1
   205   119   118   ar
   206   125   123   ar
   207   120   118   ar
   208   120   123   ar
   209   106   113   am
   210   106   107    2
   211   118   117    1
   212   113   114    1
   213   117   114    1
   214   114   115    1
   215   115   116    2
