@<TRIPOS>MOLECULE
tmp/1sb9A01.pdb
 237 229 0 0 0
SMALL
GASTEIGER

@<TRIPOS>ATOM
      1  N         48.2920    1.8180   85.3340 N.3   101  GLY101     -0.1210
      2  CA        47.0040    2.4110   85.6430 C.3   101  GLY101      0.1956
      3  C         47.0560    3.9210   85.7740 C.2   101  GLY101      0.2613
      4  O         48.0600    4.5500   85.4410 O.2   101  GLY101     -0.2717
      5  N         45.9570    4.4970   86.2510 N.am  102  SER102     -0.1938
      6  CA        45.8320    5.9370   86.4510 C.3   102  SER102      0.2055
      7  C         45.4580    6.7280   85.2080 C.2   102  SER102      0.2643
      8  O         46.2560    6.8650   84.2730 O.2   102  SER102     -0.2714
      9  CB        47.1190    6.5210   87.0290 C.3   102  SER102      0.2130
     10  OG        47.0330    7.9330   87.0720 O.3   102  SER102     -0.2179
     11  N         44.2380    7.2550   85.2150 N.am  103  VAL103     -0.1963
     12  CA        43.7350    8.0670   84.1180 C.3   103  VAL103      0.1712
     13  C         44.5860    9.3340   83.9920 C.2   103  VAL103      0.2458
     14  O         45.0620    9.6610   82.9080 O.2   103  VAL103     -0.2730
     15  CB        42.2520    8.4510   84.3530 C.3   103  VAL103      0.0289
     16  CG1       41.7890    9.4480   83.3030 C.3   103  VAL103      0.0023
     17  CG2       41.3860    7.2030   84.3040 C.3   103  VAL103      0.0023
     18  N         44.7950   10.0620   85.1040 N.am  104  PRO104     -0.2727
     19  CA        45.6070   11.2820   85.0280 C.3   104  PRO104      0.1402
     20  C         46.9610   11.0310   84.3660 C.2   104  PRO104      0.2269
     21  O         47.4220   11.8360   83.5590 O.2   104  PRO104     -0.2865
     22  CB        45.7460   11.6950   86.4910 C.3   104  PRO104      0.0296
     23  CG        44.4460   11.2450   87.0790 C.3   104  PRO104      0.0237
     24  CD        44.2740    9.8670   86.4700 C.3   104  PRO104      0.0939
     25  N         38.8470   -2.9890   82.8210 N.3   141  SER141     -0.1202
     26  CA        38.4950   -1.8520   83.6670 C.3   141  SER141      0.2020
     27  C         37.1060   -1.2660   83.4670 C.2   141  SER141      0.2619
     28  O         36.5990   -1.1930   82.3500 O.2   141  SER141     -0.2717
     29  CB        39.5320   -0.7410   83.4920 C.3   141  SER141      0.2103
     30  OG        39.0770    0.4680   84.0680 O.3   141  SER141     -0.2182
     31  N         36.5050   -0.8330   84.5690 N.am  142  SER142     -0.1937
     32  CA        35.1770   -0.2350   84.5390 C.3   142  SER142      0.2055
     33  C         35.1860    1.1120   83.8200 C.2   142  SER142      0.2643
     34  O         34.1340    1.7040   83.5900 O.2   142  SER142     -0.2714
     35  CB        34.6510   -0.0500   85.9620 C.3   142  SER142      0.2130
     36  OG        35.5030    0.7950   86.7180 O.3   142  SER142     -0.2179
     37  N         36.3720    1.5970   83.4650 N.am  143  SER143     -0.1949
     38  CA        36.4830    2.8730   82.7640 C.3   143  SER143      0.1924
     39  C         35.8950    2.7470   81.3630 C.2   143  SER143      0.2314
     40  O         35.4860    3.7360   80.7560 O.2   143  SER143     -0.2863
     41  CB        37.9500    3.3110   82.6760 C.3   143  SER143      0.2116
     42  OG        38.7370    2.3530   81.9870 O.3   143  SER143     -0.2180
     43  N         43.9220    6.1340   78.9210 N.3   165  TYR165     -0.1241
     44  CA        43.9460    4.9120   79.7170 C.3   165  TYR165      0.1605
     45  C         42.7460    4.0310   79.3760 C.2   165  TYR165      0.2264
     46  O         42.8990    2.8410   79.0960 O.2   165  TYR165     -0.2867
     47  CB        43.9150    5.2390   81.2150 C.3   165  TYR165      0.0534
     48  CG        43.7540    4.0090   82.0850 C.ar  165  TYR165     -0.0201
     49  CD1       44.8230    3.1420   82.3080 C.ar  165  TYR165     -0.0009
     50  CD2       42.5110    3.6770   82.6300 C.ar  165  TYR165     -0.0009
     51  CE1       44.6620    1.9730   83.0490 C.ar  165  TYR165      0.0417
     52  CE2       42.3350    2.5090   83.3700 C.ar  165  TYR165      0.0417
     53  CZ        43.4130    1.6610   83.5780 C.ar  165  TYR165      0.1957
     54  OH        43.2410    0.5140   84.3230 O.3   165  TYR165     -0.2866
     55  N         37.6430   -4.5690   86.5150 N.3   192  TYR192     -0.1241
     56  CA        37.7470   -4.2160   87.9250 C.3   192  TYR192      0.1605
     57  C         37.0960   -2.8680   88.2170 C.2   192  TYR192      0.2264
     58  O         37.0630   -1.9770   87.3690 O.2   192  TYR192     -0.2867
     59  CB        39.2080   -4.1370   88.3710 C.3   192  TYR192      0.0534
     60  CG        40.0450   -5.3800   88.1740 C.ar  192  TYR192     -0.0201
     61  CD1       39.4770   -6.6490   88.1810 C.ar  192  TYR192     -0.0009
     62  CD2       41.4320   -5.2830   88.0580 C.ar  192  TYR192     -0.0009
     63  CE1       40.2720   -7.7890   88.0820 C.ar  192  TYR192      0.0417
     64  CE2       42.2320   -6.4100   87.9630 C.ar  192  TYR192      0.0417
     65  CZ        41.6500   -7.6600   87.9750 C.ar  192  TYR192      0.1957
     66  OH        42.4520   -8.7760   87.8900 O.3   192  TYR192     -0.2866
     67  N         37.5770   -0.0800   91.0150 N.3   194  ASN194     -0.1225
     68  CA        38.2760    0.4740   92.1740 C.3   194  ASN194      0.1785
     69  C         38.6780   -0.5070   93.2710 C.2   194  ASN194      0.2597
     70  O         38.0910   -0.5160   94.3510 O.2   194  ASN194     -0.2718
     71  CB        37.4230    1.5800   92.8010 C.3   194  ASN194      0.1169
     72  CG        37.1670    2.7230   91.8450 C.2   194  ASN194      0.2627
     73  OD1       36.4530    2.5690   90.8550 O.2   194  ASN194     -0.2716
     74  ND2       37.7580    3.8770   92.1290 N.am  194  ASN194     -0.0877
     75  N         39.6980   -1.3100   93.0000 N.am  195  VAL195     -0.1980
     76  CA        40.1960   -2.2830   93.9610 C.3   195  VAL195      0.1595
     77  C         41.0580   -1.5810   95.0140 C.2   195  VAL195      0.2287
     78  O         41.7220   -0.5830   94.7240 O.2   195  VAL195     -0.2864
     79  CB        41.0680   -3.3450   93.2560 C.3   195  VAL195      0.0276
     80  CG1       41.4090   -4.4750   94.2200 C.3   195  VAL195      0.0022
     81  CG2       40.3540   -3.8620   92.0170 C.3   195  VAL195      0.0022
     82  N         48.6240   -1.5200   98.1510 N.3   200  GLN200     -0.1245
     83  CA        48.2730   -0.6010   97.0730 C.3   200  GLN200      0.1566
     84  C         49.0410    0.6820   97.3860 C.2   200  GLN200      0.2260
     85  O         48.7220    1.4030   98.3300 O.2   200  GLN200     -0.2867
     86  CB        46.7670   -0.3170   97.0120 C.3   200  GLN200      0.0367
     87  CG        46.4170    0.6830   95.9040 C.3   200  GLN200      0.0905
     88  CD        44.9250    0.8160   95.6370 C.2   200  GLN200      0.2608
     89  OE1       44.1270    1.0070   96.5580 O.2   200  GLN200     -0.2717
     90  NE2       44.5440    0.7330   94.3650 N.am  200  GLN200     -0.0878
     91  N         50.1440    9.5430   91.5520 N.3   206  TYR206     -0.1227
     92  CA        49.0070    8.8840   90.9120 C.3   206  TYR206      0.1736
     93  C         48.3570    7.8210   91.7930 C.2   206  TYR206      0.2595
     94  O         47.5850    6.9960   91.3060 O.2   206  TYR206     -0.2718
     95  CB        49.4350    8.2560   89.5790 C.3   206  TYR206      0.0548
     96  CG        49.9410    9.2600   88.5590 C.ar  206  TYR206     -0.0200
     97  CD1       49.1630   10.3600   88.1920 C.ar  206  TYR206     -0.0009
     98  CD2       51.1930    9.1080   87.9580 C.ar  206  TYR206     -0.0009
     99  CE1       49.6170   11.2830   87.2560 C.ar  206  TYR206      0.0417
    100  CE2       51.6550   10.0290   87.0170 C.ar  206  TYR206      0.0417
    101  CZ        50.8590   11.1130   86.6740 C.ar  206  TYR206      0.1957
    102  OH        51.3020   12.0320   85.7510 O.3   206  TYR206     -0.2866
    103  N         48.6700    7.8470   93.0860 N.am  207  ALA207     -0.1966
    104  CA        48.1060    6.8870   94.0330 C.3   207  ALA207      0.1728
    105  C         46.5750    6.9570   94.0450 C.2   207  ALA207      0.2616
    106  O         45.9920    8.0210   93.8380 O.2   207  ALA207     -0.2715
    107  CB        48.6560    7.1510   95.4330 C.3   207  ALA207      0.0334
    108  N         45.9340    5.8160   94.2830 N.am  208  ALA208     -0.1963
    109  CA        44.4760    5.7430   94.3250 C.3   208  ALA208      0.1728
    110  C         43.9650    6.4850   95.5570 C.2   208  ALA208      0.2616
    111  O         44.7110    6.7030   96.5120 O.2   208  ALA208     -0.2715
    112  CB        44.0190    4.2840   94.3520 C.3   208  ALA208      0.0334
    113  N         42.6890    6.8600   95.5300 N.am  209  VAL209     -0.1977
    114  CA        42.0780    7.6110   96.6200 C.3   209  VAL209      0.1596
    115  C         42.2220    7.0000   98.0150 C.2   209  VAL209      0.2287
    116  O         42.6110    7.6890   98.9580 O.2   209  VAL209     -0.2864
    117  CB        40.5770    7.8790   96.3340 C.3   209  VAL209      0.0276
    118  CG1       39.7910    6.5750   96.3600 C.3   209  VAL209      0.0022
    119  CG2       40.0290    8.8820   97.3420 C.3   209  VAL209      0.0022
    120  N         45.9700    7.0430   99.1790 N.3   212  LYS212     -0.1231
    121  CA        46.3370    8.4450   99.3330 C.3   212  LYS212      0.1693
    122  C         45.7270    9.0500  100.5960 C.2   212  LYS212      0.2592
    123  O         46.4340    9.6230  101.4260 O.2   212  LYS212     -0.2718
    124  CB        45.8870    9.2420   98.1030 C.3   212  LYS212      0.0285
    125  CG        46.4060   10.6700   98.0520 C.3   212  LYS212      0.0035
    126  CD        47.9290   10.7130   98.1190 C.3   212  LYS212      0.0206
    127  CE        48.4540   12.1420   97.9980 C.3   212  LYS212      0.1093
    128  NZ        49.9360   12.2270   98.1610 N.3   212  LYS212     -0.1314
    129  N         44.4130    8.9150  100.7430 N.am  213  TRP213     -0.1976
    130  CA        43.7250    9.4530  101.9080 C.3   213  TRP213      0.1640
    131  C         44.1610    8.8080  103.2290 C.2   213  TRP213      0.2290
    132  O         44.4760    9.5130  104.1980 O.2   213  TRP213     -0.2864
    133  CB        42.2110    9.3160  101.7260 C.3   213  TRP213      0.0576
    134  CG        41.6370   10.3130  100.7680 C.ar  213  TRP213      0.0006
    135  CD1       42.3310   11.1920   99.9760 C.ar  213  TRP213      0.0946
    136  CD2       40.2480   10.5520  100.5060 C.ar  213  TRP213      0.0152
    137  NE1       41.4570   11.9650   99.2410 N.ar  213  TRP213     -0.2442
    138  CE2       40.1740   11.5930   99.5470 C.ar  213  TRP213      0.0810
    139  CE3       39.0590    9.9900  100.9880 C.ar  213  TRP213      0.0012
    140  CZ2       38.9560   12.0810   99.0640 C.ar  213  TRP213      0.0191
    141  CZ3       37.8470   10.4770  100.5060 C.ar  213  TRP213      0.0001
    142  CH2       37.8070   11.5130   99.5530 C.ar  213  TRP213      0.0015
    143  N         42.2750   15.9330  100.1480 N.3   224  TYR224     -0.1227
    144  CA        41.6050   16.6420   99.0700 C.3   224  TYR224      0.1736
    145  C         40.5170   15.8260   98.3790 C.2   224  TYR224      0.2595
    146  O         40.7360   14.6860   97.9740 O.2   224  TYR224     -0.2718
    147  CB        42.6370   17.1010   98.0390 C.3   224  TYR224      0.0548
    148  CG        43.7040   17.9890   98.6260 C.ar  224  TYR224     -0.0200
    149  CD1       43.4130   19.3010   99.0110 C.ar  224  TYR224     -0.0009
    150  CD2       44.9940   17.5050   98.8490 C.ar  224  TYR224     -0.0009
    151  CE1       44.3770   20.1060   99.6060 C.ar  224  TYR224      0.0417
    152  CE2       45.9640   18.2990   99.4450 C.ar  224  TYR224      0.0417
    153  CZ        45.6500   19.5960   99.8230 C.ar  224  TYR224      0.1957
    154  OH        46.6060   20.3730  100.4350 O.3   224  TYR224     -0.2866
    155  N         39.3410   16.4310   98.2560 N.am  225  ILE225     -0.1966
    156  CA        38.2040   15.8050   97.6010 C.3   225  ILE225      0.1727
    157  C         37.9820   16.5290   96.2760 C.2   225  ILE225      0.2616
    158  O         37.6630   17.7150   96.2590 O.2   225  ILE225     -0.2715
    159  CB        36.9300   15.9160   98.4740 C.3   225  ILE225      0.0290
    160  CG1       37.1030   15.0840   99.7450 C.3   225  ILE225      0.0022
    161  CG2       35.7120   15.4550   97.6900 C.3   225  ILE225      0.0023
    162  CD1       35.8390   14.9540  100.5830 C.3   225  ILE225      0.0001
    163  N         38.1630   15.8200   95.1670 N.am  226  ASN226     -0.1972
    164  CA        37.9880   16.4220   93.8490 C.3   226  ASN226      0.1688
    165  C         36.5140   16.4700   93.4590 C.2   226  ASN226      0.2292
    166  O         35.9530   15.4920   92.9620 O.2   226  ASN226     -0.2864
    167  CB        38.7880   15.6410   92.7990 C.3   226  ASN226      0.1181
    168  CG        40.2470   15.4560   93.1950 C.2   226  ASN226      0.2629
    169  OD1       40.8460   16.3320   93.8180 O.2   226  ASN226     -0.2716
    170  ND2       40.8300   14.3170   92.8180 N.am  226  ASN226     -0.0877
    171  N         30.6710   12.0040   94.3130 N.3   231  THR231     -0.1218
    172  CA        31.1390   11.0550   93.3210 C.3   231  THR231      0.1862
    173  C         31.1030    9.7070   94.0190 C.2   231  THR231      0.2287
    174  O         31.6590    9.5610   95.1080 O.2   231  THR231     -0.2866
    175  CB        32.5860   11.3800   92.9000 C.3   231  THR231      0.1770
    176  OG1       32.6060   12.6330   92.2060 O.3   231  THR231     -0.2211
    177  CG2       33.1530   10.2860   92.0020 C.3   231  THR231      0.0375
    178  N         31.5810    5.3450   94.0340 N.3   233  ARG233     -0.1245
    179  CA        32.3440    4.2330   93.4920 C.3   233  ARG233      0.1563
    180  C         31.9330    2.9090   94.1160 C.2   233  ARG233      0.2260
    181  O         31.3580    2.8670   95.2080 O.2   233  ARG233     -0.2867
    182  CB        33.8380    4.4620   93.7330 C.3   233  ARG233      0.0307
    183  CG        34.4380    5.5940   92.9150 C.3   233  ARG233      0.0489
    184  CD        34.6650    5.1660   91.4740 C.3   233  ARG233      0.2205
    185  NE        35.2710    6.2340   90.6840 N.pl3 233  ARG233     -0.0865
    186  CZ        34.6080    7.2790   90.1990 C.cat 233  ARG233      0.5346
    187  NH1       33.3040    7.4020   90.4150 N.pl3 233  ARG233      0.1354
    188  NH2       35.2510    8.2050   89.5020 N.pl3 233  ARG233      0.1354
    189  N         32.3330    9.5130   97.8970 N.3   270  LEU270     -0.1245
    190  CA        33.6370    9.9150   98.3990 C.3   270  LEU270      0.1561
    191  C         33.5020   10.5050   99.7930 C.2   270  LEU270      0.2260
    192  O         34.4150   10.3970  100.6090 O.2   270  LEU270     -0.2867
    193  CB        34.2810   10.9330   97.4560 C.3   270  LEU270      0.0270
    194  CG        34.9030   10.3210   96.1990 C.3   270  LEU270      0.0019
    195  CD1       35.3300   11.4130   95.2350 C.3   270  LEU270      0.0001
    196  CD2       36.0860    9.4610   96.6050 C.3   270  LEU270      0.0001
    197  N         38.2590   20.6100   96.2700 N.3   295  ARG295     -0.1245
    198  CA        38.8270   21.3460   95.1480 C.3   295  ARG295      0.1563
    199  C         38.0840   20.9110   93.8820 C.2   295  ARG295      0.2260
    200  O         37.1400   20.1250   93.9570 O.2   295  ARG295     -0.2867
    201  CB        40.3320   21.0770   95.0240 C.3   295  ARG295      0.0307
    202  CG        40.7060   19.6240   94.8300 C.3   295  ARG295      0.0489
    203  CD        42.2180   19.4400   94.8240 C.3   295  ARG295      0.2205
    204  NE        42.5710   18.0250   94.7550 N.pl3 295  ARG295     -0.0865
    205  CZ        43.8110   17.5510   94.8090 C.cat 295  ARG295      0.5346
    206  NH1       44.8390   18.3810   94.9340 N.pl3 295  ARG295      0.1354
    207  NH2       44.0240   16.2420   94.7500 N.pl3 295  ARG295      0.1354
    208  N         38.3740   16.2480   88.9910 N.3   298  ARG298     -0.1245
    209  CA        39.5610   15.8600   88.2440 C.3   298  ARG298      0.1563
    210  C         39.1390   15.4940   86.8210 C.2   298  ARG298      0.2260
    211  O         38.0630   14.9370   86.6120 O.2   298  ARG298     -0.2867
    212  CB        40.2580   14.6830   88.9290 C.3   298  ARG298      0.0307
    213  CG        41.6800   14.4410   88.4460 C.3   298  ARG298      0.0489
    214  CD        42.4050   13.4500   89.3410 C.3   298  ARG298      0.2205
    215  NE        41.7570   12.1420   89.3520 N.pl3 298  ARG298     -0.0865
    216  CZ        42.1350   11.1290   90.1250 C.cat 298  ARG298      0.5346
    217  NH1       43.1600   11.2720   90.9550 N.pl3 298  ARG298      0.1354
    218  NH2       41.4890    9.9730   90.0670 N.pl3 298  ARG298      0.1354
    219  N         38.7940   13.6800   83.2040 N.3   300  GLY300     -0.1210
    220  CA        38.7010   12.2870   82.7990 C.3   300  GLY300      0.1956
    221  C         38.1930   11.4130   83.9300 C.2   300  GLY300      0.2612
    222  O         38.5090   10.2230   84.0070 O.2   300  GLY300     -0.2717
    223  N         37.3970   12.0120   84.8080 N.am  301  ASP301     -0.1959
    224  CA        36.8390   11.3120   85.9560 C.3   301  ASP301      0.1840
    225  C         35.3600   10.9930   85.7390 C.2   301  ASP301      0.2621
    226  O         34.6240   11.7940   85.1630 O.2   301  ASP301     -0.2715
    227  CB        37.0150   12.1790   87.2040 C.3   301  ASP301      0.1450
    228  CG        36.7160   11.4350   88.4790 C.2   301  ASP301      0.3671
    229  OD1       37.2910   10.3440   88.6800 O.co2 301  ASP301     -0.2456
    230  OD2       35.9130   11.9500   89.2840 O.co2 301  ASP301     -0.2456
    231  N         34.9360    9.8160   86.1930 N.am  302  VAL302     -0.1977
    232  CA        33.5450    9.3830   86.0560 C.3   302  VAL302      0.1596
    233  C         32.7440    9.8330   87.2770 C.2   302  VAL302      0.2287
    234  O         33.2680    9.8540   88.3890 O.2   302  VAL302     -0.2864
    235  CB        33.4510    7.8470   85.9510 C.3   302  VAL302      0.0276
    236  CG1       32.0310    7.4410   85.5990 C.3   302  VAL302      0.0022
    237  CG2       34.4420    7.3310   84.9170 C.3   302  VAL302      0.0022
@<TRIPOS>BOND
     1    43    44    1
     2    46    45    2
     3    45    44    1
     4    44    47    1
     5    40    39    2
     6    47    48    1
     7    39    38    1
     8    42    41    1
     9    48    49   ar
    10    48    50   ar
    11    49    51   ar
    12    28    27    2
    13    50    52   ar
    14    41    38    1
    15    38    37    1
    16   220   219    1
    17   220   221    1
    18    25    26    1
    19    14    13    2
    20    51    53   ar
    21    16    15    1
    22    52    53   ar
    23    37    33   am
    24    27    26    1
    25    27    31   am
    26    29    26    1
    27    29    30    1
    28    21    20    2
    29    53    54    1
    30    34    33    2
    31    33    32    1
    32   221   222    2
    33   221   223   am
    34    13    12    1
    35    13    18   am
    36    12    15    1
    37    12    11    1
    38     8     7    2
    39    17    15    1
    40    20    19    1
    41    32    31    1
    42    32    35    1
    43   223   224    1
    44   237   235    1
    45    19    18    1
    46    19    22    1
    47    18    24    1
    48   226   225    2
    49     7    11   am
    50     7     6    1
    51     1     2    1
    52     4     3    2
    53   236   235    1
    54     2     3    1
    55   225   224    1
    56   225   231   am
    57   102   101    1
    58     3     5   am
    59   235   232    1
    60   224   227    1
    61    35    36    1
    62   232   231    1
    63   232   233    1
    64     5     6    1
    65     6     9    1
    66    24    23    1
    67    22    23    1
    68    55    56    1
    69   211   210    2
    70   101   100   ar
    71   101    99   ar
    72   210   209    1
    73   100    98   ar
    74     9    10    1
    75   227   228    1
    76    99    97   ar
    77   233   234    2
    78    58    57    2
    79    66    65    1
    80    56    57    1
    81    56    59    1
    82    98    96   ar
    83    64    65   ar
    84    64    62   ar
    85    65    63   ar
    86    62    60   ar
    87    63    61   ar
    88    60    61   ar
    89    60    59    1
    90    97    96   ar
    91   209   212    1
    92   209   208    1
    93   213   212    1
    94   213   214    1
    95   228   229   ar
    96   228   230   ar
    97    96    95    1
    98   214   215    1
    99   215   216    2
   100   188   186    1
   101    95    92    1
   102   218   216    1
   103   216   217    1
   104   186   187    1
   105   186   185    2
   106   185   184    1
   107    73    72    2
   108    92    91    1
   109    92    93    1
   110    67    68    1
   111    94    93    2
   112   184   183    1
   113    93   103   am
   114    72    74   am
   115    72    71    1
   116   177   175    1
   117    81    79    1
   118    68    71    1
   119    68    69    1
   120   176   175    1
   121   167   168    1
   122   167   164    1
   123   170   168   am
   124   175   172    1
   125   183   182    1
   126   166   165    2
   127    75    69   am
   128    75    76    1
   129   103   104    1
   130   168   169    2
   131    79    76    1
   132    79    80    1
   133    69    70    2
   134   172   173    1
   135   172   171    1
   136   165   164    1
   137   179   182    1
   138   179   178    1
   139   179   180    1
   140   106   105    2
   141   164   163    1
   142   199   200    2
   143   199   198    1
   144    76    77    1
   145   173   174    2
   146   104   105    1
   147   104   107    1
   148   105   108   am
   149   180   181    2
   150   108   109    1
   151   109   112    1
   152   109   110    1
   153    90    88   am
   154    78    77    2
   155   207   205    1
   156   204   205    2
   157   204   203    1
   158   205   206    1
   159   203   202    1
   160   202   201    1
   161   201   198    1
   162   198   197    1
   163   163   157   am
   164   195   194    1
   165   113   110   am
   166   113   114    1
   167   110   111    2
   168    88    87    1
   169    88    89    2
   170    87    86    1
   171   194   196    1
   172   194   193    1
   173   158   157    2
   174   157   156    1
   175   117   118    1
   176   117   114    1
   177   117   119    1
   178   114   115    1
   179    86    83    1
   180    83    84    1
   181    83    82    1
   182    84    85    2
   183   193   190    1
   184   156   155    1
   185   156   159    1
   186   161   159    1
   187   189   190    1
   188   146   145    2
   189   127   126    1
   190   127   128    1
   191   115   116    2
   192   147   148    1
   193   147   144    1
   194   125   124    1
   195   125   126    1
   196   124   121    1
   197   155   145   am
   198   145   144    1
   199   190   191    1
   200   159   160    1
   201   148   150   ar
   202   148   149   ar
   203   150   152   ar
   204   149   151   ar
   205   140   138   ar
   206   140   142   ar
   207   144   143    1
   208   120   121    1
   209   137   138   ar
   210   137   135   ar
   211   121   122    1
   212   152   153   ar
   213   138   136   ar
   214   142   141   ar
   215   151   153   ar
   216   160   162    1
   217   191   192    2
   218   153   154    1
   219   135   134   ar
   220   136   134   ar
   221   136   139   ar
   222   141   139   ar
   223   122   129   am
   224   122   123    2
   225   129   130    1
   226   134   133    1
   227   133   130    1
   228   130   131    1
   229   131   132    2
