@<TRIPOS>MOLECULE
tmp/1sbeA00.pdb
 83 80 0 0 0
SMALL
GASTEIGER

@<TRIPOS>ATOM
      1  N         10.2520   92.6750   74.1310 N.3    87  ALA87      -0.1231
      2  CA         9.1160   93.2890   74.8060 C.3    87  ALA87       0.1694
      3  C          9.4490   94.6860   75.2660 C.2    87  ALA87       0.2592
      4  O         10.6130   95.0910   75.2700 O.2    87  ALA87      -0.2718
      5  CB         8.5570   92.4490   75.9410 C.3    87  ALA87       0.0304
      6  N          8.4290   95.4240   75.6570 N.am   88  ASP88      -0.1974
      7  CA         7.0560   94.9840   75.6310 C.3    88  ASP88       0.1709
      8  C          6.3060   95.6700   74.4980 C.2    88  ASP88       0.2293
      9  O          5.3020   95.1480   73.9810 O.2    88  ASP88      -0.2864
     10  CB         6.3470   95.2950   76.9680 C.3    88  ASP88       0.1436
     11  CG         5.6530   94.1210   77.6250 C.2    88  ASP88       0.3671
     12  OD1        4.5750   93.7090   76.9840 O.co2  88  ASP88      -0.2456
     13  OD2        6.0030   93.6940   78.7090 O.co2  88  ASP88      -0.2456
     14  N          4.6700   97.2390   81.5690 N.3   105  ALA105     -0.1231
     15  CA         4.8910   96.0710   80.7270 C.3   105  ALA105      0.1694
     16  C          3.8480   95.8740   79.6010 C.2   105  ALA105      0.2592
     17  O          3.6860   96.6780   78.6710 O.2   105  ALA105     -0.2718
     18  CB         4.9660   94.8430   81.5950 C.3   105  ALA105      0.0304
     19  N          3.1290   94.7720   79.6550 N.am  106  GLY106     -0.1957
     20  CA         2.1760   94.5040   78.6130 C.3   106  GLY106      0.1869
     21  C          1.0680   95.5480   78.4580 C.2   106  GLY106      0.2309
     22  O          0.3420   95.5100   77.4610 O.2   106  GLY106     -0.2863
     23  N          5.4270   92.0240   72.1810 N.3   125  PHE125     -0.1241
     24  CA         5.1950   90.8890   73.0650 C.3   125  PHE125      0.1605
     25  C          3.8240   90.2480   73.1380 C.2   125  PHE125      0.2264
     26  O          2.7950   90.8720   73.4750 O.2   125  PHE125     -0.2867
     27  CB         5.6730   91.2360   74.4720 C.3   125  PHE125      0.0534
     28  CG         5.7040   90.0230   75.3360 C.ar  125  PHE125     -0.0203
     29  CD1        6.8610   89.2460   75.3900 C.ar  125  PHE125     -0.0042
     30  CD2        4.5960   89.6740   76.1130 C.ar  125  PHE125     -0.0042
     31  CE1        6.9110   88.1320   76.2320 C.ar  125  PHE125     -0.0003
     32  CE2        4.6340   88.5580   76.9500 C.ar  125  PHE125     -0.0003
     33  CZ         5.7910   87.7790   76.9900 C.ar  125  PHE125     -0.0000
     34  N          1.1150   88.7970   74.6280 N.3   127  ASN127     -0.1240
     35  CA         0.4090   88.6190   75.8630 C.3   127  ASN127      0.1653
     36  C         -0.6100   87.4980   75.7850 C.2   127  ASN127      0.2266
     37  O         -0.4570   86.4930   75.1000 O.2   127  ASN127     -0.2867
     38  CB        -0.1460   89.9280   76.4330 C.3   127  ASN127      0.1155
     39  CG         1.0070   90.7330   76.9880 C.2   127  ASN127      0.2627
     40  OD1        0.9450   91.9650   77.0840 O.2   127  ASN127     -0.2716
     41  ND2        2.0950   90.0260   77.2870 N.am  127  ASN127     -0.0877
     42  N         -3.9740   88.1280   75.3330 N.3   129  TRP129     -0.1241
     43  CA        -4.8720   88.6890   74.3300 C.3   129  TRP129      0.1605
     44  C         -4.1910   88.9810   72.9990 C.2   129  TRP129      0.2264
     45  O         -4.8690   89.2330   72.0070 O.2   129  TRP129     -0.2867
     46  CB        -5.4910   90.0060   74.8270 C.3   129  TRP129      0.0550
     47  CG        -4.4190   91.0100   75.1290 C.ar  129  TRP129      0.0003
     48  CD1       -3.8700   91.8980   74.2520 C.ar  129  TRP129      0.0946
     49  CD2       -3.6140   91.0900   76.3040 C.ar  129  TRP129      0.0152
     50  NE1       -2.8260   92.5920   74.8180 N.ar  129  TRP129     -0.2442
     51  CE2       -2.6710   92.1330   76.1030 C.ar  129  TRP129      0.0810
     52  CE3       -3.6900   90.4830   77.5530 C.ar  129  TRP129      0.0012
     53  CZ2       -1.8040   92.5370   77.1210 C.ar  129  TRP129      0.0191
     54  CZ3       -2.8050   90.8510   78.5300 C.ar  129  TRP129      0.0001
     55  CH2       -1.8600   91.8470   78.3040 C.ar  129  TRP129      0.0015
     56  N          9.9680   95.1020   79.3050 N.3   210  GLY210     -0.1210
     57  CA         9.4680   93.9360   79.9670 C.3   210  GLY210      0.1956
     58  C          9.6400   93.9850   81.4660 C.2   210  GLY210      0.2612
     59  O         10.3380   94.8230   82.0420 O.2   210  GLY210     -0.2717
     60  N          8.9910   93.0200   82.0740 N.am  211  LEU211     -0.1965
     61  CA         9.0970   92.8090   83.4820 C.3   211  LEU211      0.1728
     62  C         10.3260   92.0020   83.7620 C.2   211  LEU211      0.2616
     63  O         11.3730   92.5330   84.0940 O.2   211  LEU211     -0.2715
     64  CB         7.8780   92.0330   83.9460 C.3   211  LEU211      0.0311
     65  CG         7.1600   92.9520   84.8830 C.3   211  LEU211      0.0022
     66  CD1        7.8670   94.3100   84.7730 C.3   211  LEU211      0.0001
     67  CD2        5.7030   93.0300   84.4760 C.3   211  LEU211      0.0001
     68  N         10.1550   90.7010   83.6050 N.am  212  ASP212     -0.1957
     69  CA        11.2480   89.7870   83.8190 C.3   212  ASP212      0.1840
     70  C         12.4980   90.2720   83.0670 C.2   212  ASP212      0.2621
     71  O         13.6220   90.2120   83.5600 O.2   212  ASP212     -0.2715
     72  CB        10.8190   88.3750   83.4260 C.3   212  ASP212      0.1450
     73  CG        10.0930   87.6120   84.4780 C.2   212  ASP212      0.3671
     74  OD1        9.9570   88.0660   85.5940 O.co2 212  ASP212     -0.2456
     75  OD2        9.6870   86.4330   84.1190 O.co2 212  ASP212     -0.2456
     76  N         12.3050   90.8350   81.8820 N.am  213  ILE213     -0.1977
     77  CA        13.4420   91.1670   81.0670 C.3   213  ILE213      0.1596
     78  C         13.4780   92.5830   80.5500 C.2   213  ILE213      0.2287
     79  O         12.4930   93.3250   80.6310 O.2   213  ILE213     -0.2864
     80  CB        13.4860   90.1950   79.9040 C.3   213  ILE213      0.0276
     81  CG1       12.8000   90.8130   78.7000 C.3   213  ILE213      0.0022
     82  CG2       12.7080   88.9520   80.3010 C.3   213  ILE213      0.0022
     83  CD1       11.3360   90.3920   78.6140 C.3   213  ILE213      0.0001
@<TRIPOS>BOND
     1    45    44    2
     2    23    24    1
     3    44    43    1
     4    24    25    1
     5    24    27    1
     6    25    26    2
     7     9     8    2
     8     1     2    1
     9    48    50   ar
    10    48    47   ar
    11    43    46    1
    12    43    42    1
    13    27    28    1
    14     8     7    1
    15    34    35    1
    16     2     3    1
    17     2     5    1
    18    50    51   ar
    19    46    47    1
    20    37    36    2
    21    47    49   ar
    22     3     4    2
    23     3     6   am
    24    28    29   ar
    25    28    30   ar
    26    29    31   ar
    27     7     6    1
    28     7    10    1
    29    36    35    1
    30    35    38    1
    31    51    49   ar
    32    51    53   ar
    33    30    32   ar
    34    31    33   ar
    35    49    52   ar
    36    38    39    1
    37    32    33   ar
    38    10    11    1
    39    12    11   ar
    40    39    40    2
    41    39    41   am
    42    53    55   ar
    43    22    21    2
    44    52    54   ar
    45    11    13   ar
    46    55    54   ar
    47    21    20    1
    48    20    19    1
    49    83    81    1
    50    17    16    2
    51    81    80    1
    52    56    57    1
    53    16    19   am
    54    16    15    1
    55    80    82    1
    56    80    77    1
    57    57    58    1
    58    78    79    2
    59    78    77    1
    60    15    14    1
    61    15    18    1
    62    77    76    1
    63    58    59    2
    64    58    60   am
    65    76    70   am
    66    60    61    1
    67    70    71    2
    68    70    69    1
    69    72    69    1
    70    72    73    1
    71    61    62    1
    72    61    64    1
    73    68    62   am
    74    68    69    1
    75    62    63    2
    76    64    65    1
    77    75    73   ar
    78    67    65    1
    79    73    74   ar
    80    66    65    1
