@<TRIPOS>MOLECULE
tmp/1sbfA00.pdb
 83 80 0 0 0
SMALL
GASTEIGER

@<TRIPOS>ATOM
      1  N        107.4180   29.1860   24.5490 N.3    87  ALA87      -0.1231
      2  CA       106.8670   28.0920   23.7690 C.3    87  ALA87       0.1694
      3  C        107.9920   27.1220   23.3680 C.2    87  ALA87       0.2592
      4  O        109.1200   27.5800   23.1480 O.2    87  ALA87      -0.2718
      5  CB       106.0150   28.5840   22.5920 C.3    87  ALA87       0.0304
      6  N        107.7360   25.7860   23.3420 N.am   88  ASP88      -0.1974
      7  CA       106.4660   25.1150   23.6620 C.3    88  ASP88       0.1709
      8  C        106.5790   24.2200   24.9050 C.2    88  ASP88       0.2293
      9  O        105.6040   24.0040   25.6600 O.2    88  ASP88      -0.2864
     10  CB       105.9400   24.2900   22.4870 C.3    88  ASP88       0.1436
     11  CG       105.0780   25.1160   21.5810 C.2    88  ASP88       0.3671
     12  OD1      103.8950   25.3610   22.1110 O.co2  88  ASP88      -0.2456
     13  OD2      105.4870   25.5920   20.5240 O.co2  88  ASP88      -0.2456
     14  N        106.6750   22.1130   17.4430 N.3   105  ALA105     -0.1231
     15  CA       105.9210   23.0510   18.2410 C.3   105  ALA105      0.1694
     16  C        105.0980   22.3240   19.3180 C.2   105  ALA105      0.2592
     17  O        105.5830   21.4410   20.0090 O.2   105  ALA105     -0.2718
     18  CB       105.0610   23.9470   17.3780 C.3   105  ALA105      0.0304
     19  N        103.8400   22.6840   19.4360 N.am  106  GLY106     -0.1957
     20  CA       102.9630   22.1650   20.4590 C.3   106  GLY106      0.1869
     21  C        102.7800   20.6570   20.5250 C.2   106  GLY106      0.2309
     22  O        102.2120   20.1620   21.5070 O.2   106  GLY106     -0.2863
     23  N        103.3000   26.4260   26.5840 N.3   128  PHE128     -0.1241
     24  CA       102.4120   27.1180   25.7110 C.3   128  PHE128      0.1605
     25  C        101.0290   26.5060   25.6740 C.2   128  PHE128      0.2264
     26  O        100.8830   25.3090   25.4390 O.2   128  PHE128     -0.2867
     27  CB       103.0060   27.1480   24.3180 C.3   128  PHE128      0.0534
     28  CG       102.1750   28.0580   23.4840 C.ar  128  PHE128     -0.0203
     29  CD1      102.3420   29.4390   23.5820 C.ar  128  PHE128     -0.0042
     30  CD2      101.1290   27.5560   22.7120 C.ar  128  PHE128     -0.0042
     31  CE1      101.5760   30.3070   22.8070 C.ar  128  PHE128     -0.0003
     32  CE2      100.3380   28.4050   21.9410 C.ar  128  PHE128     -0.0003
     33  CZ       100.5650   29.7800   22.0020 C.ar  128  PHE128     -0.0000
     34  N         97.9130   25.3230   24.1940 N.3   130  ASN130     -0.1240
     35  CA        97.2740   24.9810   22.9480 C.3   130  ASN130      0.1653
     36  C         95.8150   24.7780   23.2590 C.2   130  ASN130      0.2266
     37  O         95.4190   24.9250   24.4200 O.2   130  ASN130     -0.2867
     38  CB        97.9210   23.7720   22.2570 C.3   130  ASN130      0.1155
     39  CG        99.4340   23.9590   22.2460 C.2   130  ASN130      0.2627
     40  OD1      100.1430   23.6350   23.2210 O.2   130  ASN130     -0.2716
     41  ND2       99.9120   24.6840   21.2400 N.am  130  ASN130     -0.0877
     42  N         94.0230   22.2700   23.5510 N.3   132  TRP132     -0.1241
     43  CA        93.7440   21.1920   24.4840 C.3   132  TRP132      0.1605
     44  C         94.2300   21.4480   25.8900 C.2   132  TRP132      0.2264
     45  O         93.9450   20.6490   26.7760 O.2   132  TRP132     -0.2867
     46  CB        94.3310   19.8630   24.0020 C.3   132  TRP132      0.0550
     47  CG        95.7870   19.9870   23.6930 C.ar  132  TRP132      0.0003
     48  CD1       96.8100   19.9050   24.5800 C.ar  132  TRP132      0.0946
     49  CD2       96.3670   20.3400   22.4450 C.ar  132  TRP132      0.0152
     50  NE1       97.9990   20.1500   23.9630 N.ar  132  TRP132     -0.2442
     51  CE2       97.7650   20.3980   22.6460 C.ar  132  TRP132      0.0810
     52  CE3       95.8400   20.5480   21.1670 C.ar  132  TRP132      0.0012
     53  CZ2       98.6430   20.6580   21.6050 C.ar  132  TRP132      0.0191
     54  CZ3       96.7100   20.7980   20.1310 C.ar  132  TRP132      0.0001
     55  CH2       98.0960   20.8790   20.3610 C.ar  132  TRP132      0.0015
     56  N        108.9210   27.6530   19.9680 N.3   213  GLY213     -0.1210
     57  CA       107.6910   28.1720   19.4000 C.3   213  GLY213      0.1956
     58  C        107.5950   28.0060   17.8910 C.2   213  GLY213      0.2612
     59  O        108.5860   28.1060   17.1620 O.2   213  GLY213     -0.2717
     60  N        106.3780   27.8050   17.4220 N.am  214  LEU214     -0.1965
     61  CA       106.1870   27.6790   16.0000 C.3   214  LEU214      0.1728
     62  C        106.8590   28.7970   15.2140 C.2   214  LEU214      0.2616
     63  O        107.7130   28.5620   14.3730 O.2   214  LEU214     -0.2715
     64  CB       104.7040   27.6010   15.5980 C.3   214  LEU214      0.0311
     65  CG       104.5460   26.9940   14.2150 C.3   214  LEU214      0.0022
     66  CD1      105.8340   26.2920   13.8570 C.3   214  LEU214      0.0001
     67  CD2      103.4080   25.9780   14.1860 C.3   214  LEU214      0.0001
     68  N        106.4060   30.0090   15.4540 N.am  215  ASP215     -0.1957
     69  CA       106.8590   31.1700   14.7270 C.3   215  ASP215      0.1840
     70  C        107.6030   32.1010   15.6430 C.2   215  ASP215      0.2621
     71  O        107.9150   33.2320   15.2910 O.2   215  ASP215     -0.2715
     72  CB       105.6270   31.9210   14.2050 C.3   215  ASP215      0.1450
     73  CG       104.6250   32.1400   15.3120 C.2   215  ASP215      0.3671
     74  OD1      104.9380   31.5330   16.4240 O.co2 215  ASP215     -0.2456
     75  OD2      103.6600   32.8560   15.2090 O.co2 215  ASP215     -0.2456
     76  N        107.7580   31.6800   16.8770 N.am  216  ILE216     -0.1977
     77  CA       108.5040   32.4890   17.8040 C.3   216  ILE216      0.1596
     78  C        109.5450   31.6470   18.4370 C.2   216  ILE216      0.2287
     79  O        109.4670   30.4260   18.4780 O.2   216  ILE216     -0.2864
     80  CB       107.6930   33.1520   18.9040 C.3   216  ILE216      0.0276
     81  CG1      107.4260   32.1180   19.9840 C.3   216  ILE216      0.0022
     82  CG2      106.3920   33.7340   18.3740 C.3   216  ILE216      0.0022
     83  CD1      106.1980   32.4160   20.8340 C.3   216  ILE216      0.0001
@<TRIPOS>BOND
     1    66    65    1
     2    67    65    1
     3    72    69    1
     4    72    73    1
     5    65    64    1
     6    63    62    2
     7    69    68    1
     8    69    70    1
     9    75    73   ar
    10    62    68   am
    11    62    61    1
    12    71    70    2
    13    73    74   ar
    14    64    61    1
    15    70    76   am
    16    61    60    1
    17    76    77    1
    18    59    58    2
    19    18    15    1
    20    60    58   am
    21    14    15    1
    22    77    78    1
    23    77    80    1
    24    58    57    1
    25    15    16    1
    26    82    80    1
    27    78    79    2
    28    80    81    1
    29    16    19   am
    30    16    17    2
    31    57    56    1
    32    19    20    1
    33    81    83    1
    34    54    55   ar
    35    54    52   ar
    36    55    53   ar
    37    20    21    1
    38    13    11   ar
    39    21    22    2
    40    52    49   ar
    41    41    39   am
    42    11    12   ar
    43    11    10    1
    44    53    51   ar
    45    32    33   ar
    46    32    30   ar
    47    33    31   ar
    48    39    38    1
    49    39    40    2
    50    38    35    1
    51    49    51   ar
    52    49    47   ar
    53    10     7    1
    54     5     2    1
    55    51    50   ar
    56    30    28   ar
    57    31    29   ar
    58    35    36    1
    59    35    34    1
    60     4     3    2
    61    36    37    2
    62     6     3   am
    63     6     7    1
    64     3     2    1
    65    28    29   ar
    66    28    27    1
    67    42    43    1
    68     7     8    1
    69    47    46    1
    70    47    48   ar
    71     2     1    1
    72    50    48   ar
    73    46    43    1
    74    27    24    1
    75    43    44    1
    76     8     9    2
    77    26    25    2
    78    25    24    1
    79    24    23    1
    80    44    45    2
