@<TRIPOS>MOLECULE
tmp/1sbgB00.pdb
 105 98 0 0 0
SMALL
GASTEIGER

@<TRIPOS>ATOM
      1  N        -21.7710   19.8820   34.0880 N.3     8  ARG8       -0.1245
      2  CA       -21.0230   19.7200   32.8470 C.3     8  ARG8        0.1563
      3  C        -21.8510   20.3930   31.7540 C.2     8  ARG8        0.2260
      4  O        -23.0730   20.2430   31.7730 O.2     8  ARG8       -0.2867
      5  CB       -20.8400   18.2690   32.4180 C.3     8  ARG8        0.0307
      6  CG       -19.6920   17.5710   33.1210 C.3     8  ARG8        0.0489
      7  CD       -19.4380   16.2280   32.4490 C.3     8  ARG8        0.2205
      8  NE       -18.5310   15.4720   33.2900 N.pl3   8  ARG8       -0.0865
      9  CZ       -18.2480   14.1920   33.1350 C.cat   8  ARG8        0.5346
     10  NH1      -18.7690   13.4520   32.1690 N.pl3   8  ARG8        0.1354
     11  NH2      -17.3950   13.6670   34.0100 N.pl3   8  ARG8        0.1354
     12  N        -20.5260   17.3430   25.1530 N.3    23  LEU23      -0.1245
     13  CA       -19.8150   18.3250   25.9690 C.3    23  LEU23       0.1561
     14  C        -19.2190   19.5330   25.2340 C.2    23  LEU23       0.2260
     15  O        -18.4210   19.2980   24.3080 O.2    23  LEU23      -0.2867
     16  CB       -18.6250   17.6570   26.7040 C.3    23  LEU23       0.0270
     17  CG       -18.2740   17.5850   28.2070 C.3    23  LEU23       0.0019
     18  CD1      -16.8030   17.2680   28.3050 C.3    23  LEU23       0.0001
     19  CD2      -18.4040   18.8940   28.9470 C.3    23  LEU23       0.0001
     20  N        -16.6670   21.7230   25.0230 N.3    25  ASP25      -0.1239
     21  CA       -15.2970   21.6280   25.4360 C.3    25  ASP25       0.1674
     22  C        -14.2650   22.6630   25.0270 C.2    25  ASP25       0.2266
     23  O        -13.5930   22.4110   24.0310 O.2    25  ASP25      -0.2867
     24  CB       -14.8970   20.2820   24.9600 C.3    25  ASP25       0.1410
     25  CG       -13.9950   19.5200   25.8740 C.2    25  ASP25       0.3668
     26  OD1      -12.9970   20.0260   26.3990 O.co2  25  ASP25      -0.2456
     27  OD2      -14.3270   18.3600   26.0450 O.co2  25  ASP25      -0.2456
     28  N        -11.2320   23.0810   25.9710 N.3    27  GLY27      -0.1210
     29  CA        -9.8800   22.5660   25.9350 C.3    27  GLY27       0.1956
     30  C         -9.7120   21.4800   24.8850 C.2    27  GLY27       0.2612
     31  O         -8.7250   20.7500   24.9200 O.2    27  GLY27      -0.2717
     32  N        -10.6600   21.2620   23.9790 N.am   28  ALA28      -0.1965
     33  CA       -10.4570   20.3080   22.9280 C.3    28  ALA28       0.1728
     34  C        -10.2900   21.0870   21.6450 C.2    28  ALA28       0.2616
     35  O        -11.1010   21.9610   21.2990 O.2    28  ALA28      -0.2715
     36  CB       -11.6450   19.4030   22.7390 C.3    28  ALA28       0.0334
     37  N         -9.1930   20.8180   20.9260 N.am   29  ASP29      -0.1957
     38  CA        -9.0110   21.5290   19.6510 C.3    29  ASP29       0.1840
     39  C         -9.8860   20.8830   18.6240 C.2    29  ASP29       0.2622
     40  O        -10.3380   21.5680   17.7330 O.2    29  ASP29      -0.2715
     41  CB        -7.6480   21.4460   19.0410 C.3    29  ASP29       0.1450
     42  CG        -6.5500   21.9060   19.9640 C.2    29  ASP29       0.3671
     43  OD1       -6.7520   22.7340   20.8470 O.co2  29  ASP29      -0.2456
     44  OD2       -5.4530   21.4010   19.7890 O.co2  29  ASP29      -0.2456
     45  N        -10.1460   19.5840   18.8060 N.am   30  ASP30      -0.1971
     46  CA       -10.9620   18.7740   17.9200 C.3    30  ASP30       0.1709
     47  C        -12.2800   18.3110   18.5220 C.2    30  ASP30       0.2293
     48  O        -12.4680   18.3620   19.7390 O.2    30  ASP30      -0.2864
     49  CB       -10.1920   17.5520   17.5360 C.3    30  ASP30       0.1436
     50  CG        -8.7780   17.7720   17.0370 C.2    30  ASP30       0.3671
     51  OD1       -8.5930   18.5180   16.1000 O.co2  30  ASP30      -0.2456
     52  OD2       -7.8560   17.1910   17.5890 O.co2  30  ASP30      -0.2456
     53  N        -14.5000   15.0710   19.0810 N.3    32  VAL32      -0.1245
     54  CA       -14.3660   13.6310   18.9720 C.3    32  VAL32       0.1561
     55  C        -15.6410   13.0250   19.5630 C.2    32  VAL32       0.2260
     56  O        -16.1100   13.4110   20.6310 O.2    32  VAL32      -0.2867
     57  CB       -13.0530   13.1140   19.7040 C.3    32  VAL32       0.0252
     58  CG1      -12.9890   13.4220   21.1630 C.3    32  VAL32       0.0019
     59  CG2      -13.0110   11.6020   19.5610 C.3    32  VAL32       0.0019
     60  N         -4.8960   10.9370   18.0540 N.3    47  ILE47      -0.1231
     61  CA        -4.9040   12.1480   18.8660 C.3    47  ILE47       0.1692
     62  C         -4.5430   11.8240   20.3170 C.2    47  ILE47       0.2593
     63  O         -4.6470   10.6780   20.7900 O.2    47  ILE47      -0.2718
     64  CB        -6.2740   12.8650   18.8660 C.3    47  ILE47       0.0266
     65  CG1       -7.3800   11.9660   19.2940 C.3    47  ILE47       0.0019
     66  CG2       -6.5110   13.4110   17.4870 C.3    47  ILE47       0.0020
     67  CD1       -8.7000   12.7160   19.5430 C.3    47  ILE47       0.0001
     68  N         -4.0860   12.8330   21.0540 N.am   48  GLY48      -0.1942
     69  CA        -3.7490   12.6470   22.4610 C.3    48  GLY48       0.2014
     70  C         -4.4360   13.6210   23.4200 C.2    48  GLY48       0.2639
     71  O         -4.7200   14.7890   23.1090 O.2    48  GLY48      -0.2714
     72  N         -4.6900   13.1120   24.6060 N.am   49  GLY49      -0.1939
     73  CA        -5.2690   13.8560   25.6950 C.3    49  GLY49       0.2014
     74  C         -4.6090   13.3010   26.9410 C.2    49  GLY49       0.2638
     75  O         -3.5450   12.6730   26.8600 O.2    49  GLY49      -0.2714
     76  N         -5.1550   13.5530   28.1300 N.am   50  ILE50      -0.1977
     77  CA        -4.6610   12.9550   29.3650 C.3    50  ILE50       0.1596
     78  C         -4.7620   11.4400   29.2010 C.2    50  ILE50       0.2287
     79  O         -5.7480   10.9350   28.6240 O.2    50  ILE50      -0.2864
     80  CB        -5.5390   13.5380   30.4930 C.3    50  ILE50       0.0276
     81  CG1       -4.6980   14.6100   31.1680 C.3    50  ILE50       0.0022
     82  CG2       -5.9850   12.5040   31.5400 C.3    50  ILE50       0.0022
     83  CD1       -4.7190   16.0380   30.5890 C.3    50  ILE50       0.0001
     84  N        -14.6710    8.2830   25.8120 N.3    81  PRO81      -0.2102
     85  CA       -15.6990    8.2060   26.8530 C.3    81  PRO81       0.1504
     86  C        -16.9320    9.1190   26.7620 C.2    81  PRO81       0.2575
     87  O        -18.0200    8.7090   27.1420 O.2    81  PRO81      -0.2718
     88  CB       -14.9200    8.4370   28.1640 C.3    81  PRO81       0.0282
     89  CG       -13.7390    9.2770   27.7110 C.3    81  PRO81       0.0208
     90  CD       -13.3670    8.5690   26.4070 C.3    81  PRO81       0.0893
     91  N        -16.8050   10.3790   26.3290 N.am   82  VAL82      -0.1980
     92  CA       -17.9100   11.3270   26.2210 C.3    82  VAL82       0.1595
     93  C        -17.8220   11.9520   24.8550 C.2    82  VAL82       0.2287
     94  O        -16.7530   11.9150   24.2810 O.2    82  VAL82      -0.2864
     95  CB       -17.8300   12.4670   27.2950 C.3    82  VAL82       0.0276
     96  CG1      -18.0590   11.8830   28.6610 C.3    82  VAL82       0.0022
     97  CG2      -16.4820   13.1220   27.3320 C.3    82  VAL82       0.0022
     98  N        -17.3880   15.0530   22.5860 N.3    84  ILE84      -0.1301
     99  CA       -16.7230   16.3390   22.7530 C.3    84  ILE84       0.1246
    100  C        -16.8850   17.3410   21.6390 C.3    84  ILE84       0.2009
    101  O        -16.4440   16.9770   20.5600 O.3    84  ILE84      -0.2188
    102  CB       -15.2260   15.9470   22.9820 C.3    84  ILE84       0.0202
    103  CG1      -15.0540   15.4740   24.3880 C.3    84  ILE84       0.0015
    104  CG2      -14.2920   17.0690   22.6920 C.3    84  ILE84       0.0016
    105  CD1      -13.8770   14.5140   24.4800 C.3    84  ILE84       0.0000
@<TRIPOS>BOND
     1    51    50   ar
     2    50    49    1
     3    50    52   ar
     4    66    64    1
     5    49    46    1
     6    40    39    2
     7    46    47    1
     8    46    45    1
     9    60    61    1
    10    47    48    2
    11    39    45   am
    12    39    38    1
    13    64    61    1
    14    64    65    1
    15    61    62    1
    16    54    53    1
    17    54    55    1
    18    54    57    1
    19    41    38    1
    20    41    42    1
    21    65    67    1
    22    59    57    1
    23    55    56    2
    24    38    37    1
    25    57    58    1
    26    44    42   ar
    27    42    43   ar
    28    62    63    2
    29    62    68   am
    30   101   100    1
    31    37    34   am
    32    68    69    1
    33    35    34    2
    34   100    99    1
    35    34    33    1
    36    69    70    1
    37    98    99    1
    38   104   102    1
    39    36    33    1
    40    99   102    1
    41    33    32    1
    42   102   103    1
    43    71    70    2
    44    70    72   am
    45    32    30   am
    46    23    22    2
    47    94    93    2
    48    15    14    2
    49   103   105    1
    50    72    73    1
    51    93    92    1
    52    30    31    2
    53    30    29    1
    54    24    21    1
    55    24    25    1
    56    20    21    1
    57    22    21    1
    58    12    13    1
    59    14    13    1
    60    73    74    1
    61    84    90    1
    62    84    85    1
    63    25    27   ar
    64    25    26   ar
    65    29    28    1
    66    13    16    1
    67    92    91    1
    68    92    95    1
    69    91    86   am
    70    90    89    1
    71    16    17    1
    72    86    85    1
    73    86    87    2
    74    85    88    1
    75    75    74    2
    76    74    76   am
    77    95    97    1
    78    95    96    1
    79    89    88    1
    80    76    77    1
    81    17    18    1
    82    17    19    1
    83    79    78    2
    84    78    77    1
    85    77    80    1
    86    80    81    1
    87    80    82    1
    88    83    81    1
    89     3     4    2
    90     3     2    1
    91    10     9    1
    92     5     2    1
    93     5     6    1
    94     7     6    1
    95     7     8    1
    96     2     1    1
    97     9     8    2
    98     9    11    1
