@<TRIPOS>MOLECULE
tmp/1sbrB00.pdb
 127 126 0 0 0
SMALL
GASTEIGER

@<TRIPOS>ATOM
      1  N          6.2130   43.5730   22.5080 N.3     7  PHE7       -0.1227
      2  CA         7.2760   43.9240   21.5680 C.3     7  PHE7        0.1736
      3  C          8.4270   42.9110   21.5350 C.2     7  PHE7        0.2596
      4  O          8.5770   42.0770   22.4130 O.2     7  PHE7       -0.2718
      5  CB         7.8670   45.2800   21.9320 C.3     7  PHE7        0.0547
      6  CG         8.6130   45.2630   23.2220 C.ar    7  PHE7       -0.0202
      7  CD1       10.0120   45.2760   23.2350 C.ar    7  PHE7       -0.0042
      8  CD2        7.9280   45.2010   24.4240 C.ar    7  PHE7       -0.0042
      9  CE1       10.7320   45.2430   24.4260 C.ar    7  PHE7       -0.0003
     10  CE2        8.6210   45.1380   25.6320 C.ar    7  PHE7       -0.0003
     11  CZ        10.0630   45.1630   25.6180 C.ar    7  PHE7       -0.0000
     12  N          9.2540   43.0570   20.5110 N.am    8  SER8       -0.1938
     13  CA        10.4280   42.2350   20.3340 C.3     8  SER8        0.2055
     14  C         11.6040   43.1270   19.9970 C.2     8  SER8        0.2643
     15  O         11.4420   44.1030   19.2530 O.2     8  SER8       -0.2714
     16  CB        10.1840   41.2780   19.1700 C.3     8  SER8        0.2130
     17  OG         9.3110   40.2460   19.5560 O.3     8  SER8       -0.2179
     18  N         12.7700   42.8130   20.5490 N.am    9  LEU9       -0.1963
     19  CA        14.0180   43.4180   20.0750 C.3     9  LEU9        0.1728
     20  C         14.8010   42.4400   19.2000 C.2     9  LEU9        0.2616
     21  O         14.9510   41.2440   19.5170 O.2     9  LEU9       -0.2715
     22  CB        14.9330   43.8820   21.2110 C.3     9  LEU9        0.0311
     23  CG        14.5310   45.0800   22.0470 C.3     9  LEU9        0.0022
     24  CD1       15.3110   45.0340   23.3220 C.3     9  LEU9        0.0001
     25  CD2       14.7020   46.3890   21.3380 C.3     9  LEU9        0.0001
     26  N         15.3380   43.0050   18.1260 N.am   10  TYR10      -0.1974
     27  CA        16.0170   42.2690   17.0850 C.3    10  TYR10       0.1639
     28  C         17.3960   42.8480   16.9240 C.2    10  TYR10       0.2290
     29  O         17.5770   43.7990   16.1950 O.2    10  TYR10      -0.2864
     30  CB        15.2320   42.4410   15.7990 C.3    10  TYR10       0.0560
     31  CG        13.8300   41.8730   15.8930 C.ar   10  TYR10      -0.0198
     32  CD1       12.7170   42.6780   15.6630 C.ar   10  TYR10      -0.0009
     33  CD2       13.6180   40.5240   16.2530 C.ar   10  TYR10      -0.0009
     34  CE1       11.4230   42.1550   15.7540 C.ar   10  TYR10       0.0417
     35  CE2       12.3200   39.9900   16.3340 C.ar   10  TYR10       0.0417
     36  CZ        11.2210   40.8170   16.0670 C.ar   10  TYR10       0.1957
     37  OH         9.9270   40.3170   16.1230 O.3    10  TYR10      -0.2866
     38  N         23.2360   38.6750   19.7530 N.3    15  PHE15      -0.1227
     39  CA        21.8360   39.0170   19.9900 C.3    15  PHE15       0.1736
     40  C         21.2810   38.7290   21.3960 C.2    15  PHE15       0.2595
     41  O         20.6250   39.5800   21.9700 O.2    15  PHE15      -0.2718
     42  CB        20.9320   38.4760   18.8740 C.3    15  PHE15       0.0547
     43  CG        20.7730   36.9800   18.8400 C.ar   15  PHE15      -0.0202
     44  CD1       19.6700   36.3630   19.4520 C.ar   15  PHE15      -0.0042
     45  CD2       21.6570   36.1940   18.1180 C.ar   15  PHE15      -0.0042
     46  CE1       19.4830   34.9710   19.3900 C.ar   15  PHE15      -0.0003
     47  CE2       21.4900   34.8090   18.0450 C.ar   15  PHE15      -0.0003
     48  CZ        20.3940   34.1980   18.6840 C.ar   15  PHE15      -0.0000
     49  N         21.5640   37.5590   21.9470 N.am   16  ILE16      -0.1980
     50  CA        21.0900   37.1900   23.2870 C.3    16  ILE16       0.1595
     51  C         21.4230   38.2260   24.3540 C.2    16  ILE16       0.2287
     52  O         20.5730   38.5890   25.1660 O.2    16  ILE16      -0.2864
     53  CB        21.6590   35.8110   23.7120 C.3    16  ILE16       0.0276
     54  CG1       21.3250   34.7410   22.6570 C.3    16  ILE16       0.0022
     55  CG2       21.2560   35.4810   25.1800 C.3    16  ILE16       0.0022
     56  CD1       20.3990   33.6190   23.1330 C.3    16  ILE16       0.0001
     57  N         19.4810   41.7010   23.8600 N.3    19  ILE19      -0.1231
     58  CA        18.1280   41.5800   24.3900 C.3    19  ILE19       0.1692
     59  C         18.1930   41.6070   25.9190 C.2    19  ILE19       0.2591
     60  O         17.5660   42.4620   26.5600 O.2    19  ILE19      -0.2718
     61  CB        17.3820   40.3140   23.8520 C.3    19  ILE19       0.0266
     62  CG1       17.1240   40.4610   22.3600 C.3    19  ILE19       0.0019
     63  CG2       16.0510   40.0800   24.5930 C.3    19  ILE19       0.0020
     64  CD1       17.2880   39.1590   21.5890 C.3    19  ILE19       0.0001
     65  N         18.9560   40.6770   26.4980 N.am   20  LYS20      -0.1980
     66  CA        18.9550   40.4740   27.9410 C.3    20  LYS20       0.1596
     67  C         19.3310   41.7750   28.6340 C.2    20  LYS20       0.2287
     68  O         18.7630   42.1690   29.6700 O.2    20  LYS20      -0.2864
     69  CB        19.9240   39.3620   28.3030 C.3    20  LYS20       0.0298
     70  CG        19.7490   38.7890   29.6930 C.3    20  LYS20       0.0038
     71  CD        19.6070   37.2360   29.6760 C.3    20  LYS20       0.0206
     72  CE        19.2200   36.7450   31.0950 C.3    20  LYS20       0.1093
     73  NZ        19.2990   35.2530   31.2730 N.3    20  LYS20      -0.1314
     74  N         16.7130   44.8280   28.5110 N.3    23  LEU23      -0.1245
     75  CA        15.6620   44.5850   29.5080 C.3    23  LEU23       0.1561
     76  C         16.1020   44.8550   30.9680 C.2    23  LEU23       0.2260
     77  O         15.3770   45.5030   31.7690 O.2    23  LEU23      -0.2867
     78  CB        15.0770   43.1650   29.3600 C.3    23  LEU23       0.0270
     79  CG        14.3360   42.8740   28.0300 C.3    23  LEU23       0.0019
     80  CD1       13.8860   41.4000   27.8800 C.3    23  LEU23       0.0001
     81  CD2       13.1350   43.8060   27.8610 C.3    23  LEU23       0.0001
     82  N          8.6190   38.1980   29.6710 N.3    35  THR35      -0.1203
     83  CA         9.4290   37.8140   28.5260 C.3    35  THR35       0.1994
     84  C          9.2260   36.3500   28.1820 C.2    35  THR35       0.2618
     85  O          9.1990   35.5010   29.0880 O.2    35  THR35      -0.2717
     86  CB        10.8870   37.9850   28.8390 C.3    35  THR35       0.1784
     87  OG1       11.1590   39.3500   29.1700 O.3    35  THR35      -0.2211
     88  CG2       11.7200   37.7390   27.5970 C.3    35  THR35       0.0376
     89  N          9.0890   36.0560   26.8850 N.am   36  ASP36      -0.1959
     90  CA         8.9280   34.6780   26.4050 C.3    36  ASP36       0.1840
     91  C          9.8590   34.4720   25.2000 C.2    36  ASP36       0.2622
     92  O         10.6390   35.3590   24.9010 O.2    36  ASP36      -0.2715
     93  CB         7.4420   34.2990   26.1370 C.3    36  ASP36       0.1450
     94  CG         6.8150   35.0340   24.9290 C.2    36  ASP36       0.3671
     95  OD1        7.4160   35.0760   23.8290 O.co2  36  ASP36      -0.2456
     96  OD2        5.6770   35.5680   24.9640 O.co2  36  ASP36      -0.2456
     97  N          9.7930   33.3270   24.5210 N.am   37  HIS37      -0.1959
     98  CA        10.7450   33.0550   23.4390 C.3    37  HIS37       0.1787
     99  C         10.6300   33.9920   22.2370 C.2    37  HIS37       0.2620
    100  O         11.6170   34.1790   21.5360 O.2    37  HIS37      -0.2715
    101  CB        10.7940   31.5670   23.0160 C.3    37  HIS37       0.0785
    102  CG         9.4980   31.0300   22.4860 C.ar   37  HIS37       0.0821
    103  ND1        9.4460   30.0810   21.4820 N.ar   37  HIS37      -0.2267
    104  CD2        8.2070   31.3010   22.8220 C.ar   37  HIS37       0.1154
    105  CE1        8.1790   29.7810   21.2340 C.ar   37  HIS37       0.1986
    106  NE2        7.4070   30.5090   22.0300 N.ar   37  HIS37      -0.2212
    107  N          9.4550   34.5920   22.0250 N.am   38  ILE38      -0.1963
    108  CA         9.2030   35.4530   20.8530 C.3    38  ILE38       0.1727
    109  C          9.2210   36.9360   21.1970 C.2    38  ILE38       0.2617
    110  O          9.6810   37.7700   20.3790 O.2    38  ILE38      -0.2715
    111  CB         7.8560   35.0770   20.1620 C.3    38  ILE38       0.0290
    112  CG1        7.9260   33.6860   19.4870 C.3    38  ILE38       0.0022
    113  CG2        7.4560   36.0890   19.1150 C.3    38  ILE38       0.0023
    114  CD1        6.6920   32.8070   19.8080 C.3    38  ILE38       0.0001
    115  N          8.7670   37.2720   22.4110 N.am   39  SER39      -0.1936
    116  CA         8.4200   38.6590   22.7310 C.3    39  SER39       0.2055
    117  C          8.2750   38.9090   24.2160 C.2    39  SER39       0.2643
    118  O          8.1290   37.9730   24.9990 O.2    39  SER39      -0.2714
    119  CB         7.1160   39.0510   22.0270 C.3    39  SER39       0.2130
    120  OG         6.0230   38.4450   22.6720 O.3    39  SER39      -0.2179
    121  N          8.3090   40.1920   24.5770 N.am   40  THR40      -0.1950
    122  CA         8.0780   40.6590   25.9560 C.3    40  THR40       0.1897
    123  C          6.8300   41.4860   25.9810 C.2    40  THR40       0.2313
    124  O          6.5310   42.1930   25.0150 O.2    40  THR40      -0.2863
    125  CB         9.2620   41.5180   26.4030 C.3    40  THR40       0.1794
    126  OG1       10.4070   40.6810   26.4490 O.3    40  THR40      -0.2208
    127  CG2        9.1310   41.9990   27.8080 C.3    40  THR40       0.0378
@<TRIPOS>BOND
     1    32    34   ar
     2    32    31   ar
     3    34    36   ar
     4    30    31    1
     5    30    27    1
     6    31    33   ar
     7    36    37    1
     8    36    35   ar
     9    29    28    2
    10    33    35   ar
    11    28    27    1
    12    27    26    1
    13    47    45   ar
    14    47    48   ar
    15    45    43   ar
    16    26    20   am
    17    48    46   ar
    18    43    42    1
    19    43    44   ar
    20    42    39    1
    21   113   111    1
    22    16    17    1
    23    16    13    1
    24    20    21    2
    25    20    19    1
    26    15    14    2
    27    46    44   ar
    28   112   114    1
    29   112   111    1
    30    38    39    1
    31    39    40    1
    32    14    13    1
    33    14    18   am
    34    19    18    1
    35    19    22    1
    36   111   108    1
    37    13    12    1
    38   110   109    2
    39    12     3   am
    40   108   109    1
    41   108   107    1
    42   109   115   am
    43    22    23    1
    44   105   103   ar
    45   105   106   ar
    46    25    23    1
    47    40    49   am
    48    40    41    2
    49   103   102   ar
    50     3     2    1
    51     3     4    2
    52   100    99    2
    53     2     5    1
    54     2     1    1
    55    64    62    1
    56     5     6    1
    57    49    50    1
    58   107    99   am
    59   119   120    1
    60   119   116    1
    61   106   104   ar
    62    23    24    1
    63    99    98    1
    64    62    61    1
    65   115   116    1
    66   102   104   ar
    67   102   101    1
    68    54    56    1
    69    54    53    1
    70   116   117    1
    71   101    98    1
    72     6     7   ar
    73     6     8   ar
    74     7     9   ar
    75    50    53    1
    76    50    51    1
    77    98    97    1
    78    53    55    1
    79    95    94   ar
    80    61    58    1
    81    61    63    1
    82    57    58    1
    83   117   121   am
    84   117   118    2
    85    51    52    2
    86    58    59    1
    87     8    10   ar
    88     9    11   ar
    89    97    91   am
    90   121   122    1
    91    92    91    2
    92    94    96   ar
    93    94    93    1
    94   124   123    2
    95    91    90    1
    96    11    10   ar
    97    59    65   am
    98    59    60    2
    99   122   123    1
   100   122   125    1
   101    93    90    1
   102   125   126    1
   103   125   127    1
   104    90    89    1
   105    65    66    1
   106    89    84   am
   107    88    86    1
   108    81    79    1
   109    80    79    1
   110    66    69    1
   111    66    67    1
   112    79    78    1
   113    84    83    1
   114    84    85    2
   115    69    70    1
   116    74    75    1
   117    83    86    1
   118    83    82    1
   119    67    68    2
   120    86    87    1
   121    78    75    1
   122    75    76    1
   123    71    70    1
   124    71    72    1
   125    76    77    2
   126    72    73    1
