@<TRIPOS>MOLECULE
tmp/1sbrB01.pdb
 98 96 0 0 0
SMALL
GASTEIGER

@<TRIPOS>ATOM
      1  N          4.7030   53.1440   11.4140 N.3   107  PHE107     -0.1227
      2  CA         3.6840   52.7990   12.4060 C.3   107  PHE107      0.1736
      3  C          2.2770   52.8330   11.8560 C.2   107  PHE107      0.2595
      4  O          1.9980   53.4610   10.8360 O.2   107  PHE107     -0.2718
      5  CB         3.8110   53.6700   13.6690 C.3   107  PHE107      0.0547
      6  CG         3.1640   55.0400   13.5520 C.ar  107  PHE107     -0.0202
      7  CD1        2.2120   55.4430   14.4550 C.ar  107  PHE107     -0.0042
      8  CD2        3.5050   55.9100   12.5290 C.ar  107  PHE107     -0.0042
      9  CE1        1.6130   56.7120   14.3540 C.ar  107  PHE107     -0.0003
     10  CE2        2.9230   57.1810   12.4380 C.ar  107  PHE107     -0.0003
     11  CZ         1.9770   57.5670   13.3530 C.ar  107  PHE107     -0.0000
     12  N          1.3870   52.1500   12.5530 N.am  108  ALA108     -0.1966
     13  CA         0.0100   51.9780   12.0930 C.3   108  ALA108      0.1728
     14  C         -0.9170   52.0850   13.3050 C.2   108  ALA108      0.2616
     15  O         -0.6640   51.4780   14.3280 O.2   108  ALA108     -0.2715
     16  CB        -0.1460   50.6330   11.3940 C.3   108  ALA108      0.0334
     17  N         -1.9540   52.9040   13.1870 N.am  109  LEU109     -0.1963
     18  CA        -2.9700   53.0570   14.2100 C.3   109  LEU109      0.1728
     19  C         -4.2150   52.2420   13.8480 C.2   109  LEU109      0.2616
     20  O         -4.7490   52.4220   12.7540 O.2   109  LEU109     -0.2715
     21  CB        -3.3450   54.5240   14.3210 C.3   109  LEU109      0.0311
     22  CG        -4.2570   54.8890   15.4690 C.3   109  LEU109      0.0022
     23  CD1       -3.5140   54.7270   16.8230 C.3   109  LEU109      0.0001
     24  CD2       -4.8060   56.2970   15.2610 C.3   109  LEU109      0.0001
     25  N         -4.6630   51.3580   14.7450 N.am  110  TYR110     -0.1974
     26  CA        -5.9160   50.5590   14.5490 C.3   110  TYR110      0.1639
     27  C         -6.9390   50.7890   15.6530 C.2   110  TYR110      0.2290
     28  O         -6.9560   50.0690   16.6740 O.2   110  TYR110     -0.2864
     29  CB        -5.6500   49.0480   14.4730 C.3   110  TYR110      0.0560
     30  CG        -4.6680   48.6930   13.4110 C.ar  110  TYR110     -0.0198
     31  CD1       -3.4290   48.1360   13.7320 C.ar  110  TYR110     -0.0009
     32  CD2       -4.9350   48.9920   12.0860 C.ar  110  TYR110     -0.0009
     33  CE1       -2.5110   47.8400   12.7480 C.ar  110  TYR110      0.0417
     34  CE2       -4.0080   48.7260   11.0990 C.ar  110  TYR110      0.0417
     35  CZ        -2.8120   48.1340   11.4450 C.ar  110  TYR110      0.1957
     36  OH        -1.9340   47.8450   10.4550 O.3   110  TYR110     -0.2866
     37  N        -12.7750   55.6330   12.2230 N.3   116  TYR116     -0.1241
     38  CA       -11.3760   55.2760   12.4520 C.3   116  TYR116      0.1605
     39  C        -10.4840   55.9420   11.4320 C.2   116  TYR116      0.2264
     40  O         -9.3670   56.3420   11.7530 O.2   116  TYR116     -0.2867
     41  CB       -11.1460   53.7560   12.5640 C.3   116  TYR116      0.0534
     42  CG       -11.3140   52.9690   11.2910 C.ar  116  TYR116     -0.0201
     43  CD1      -10.1980   52.4700   10.6110 C.ar  116  TYR116     -0.0009
     44  CD2      -12.5900   52.7070   10.7650 C.ar  116  TYR116     -0.0009
     45  CE1      -10.3470   51.7330    9.4200 C.ar  116  TYR116      0.0417
     46  CE2      -12.7510   51.9720    9.5820 C.ar  116  TYR116      0.0417
     47  CZ       -11.6300   51.4850    8.9160 C.ar  116  TYR116      0.1957
     48  OH       -11.7780   50.7530    7.7550 O.3   116  TYR116     -0.2866
     49  N         -7.1630   58.1070   12.2860 N.3   119  ILE119     -0.1245
     50  CA        -5.8790   57.8900   11.6260 C.3   119  ILE119      0.1561
     51  C         -5.4280   59.1650   10.9360 C.2   119  ILE119      0.2260
     52  O         -4.2490   59.5280   10.9950 O.2   119  ILE119     -0.2867
     53  CB        -5.9690   56.7680   10.5890 C.3   119  ILE119      0.0252
     54  CG1       -6.1570   55.4150   11.2550 C.3   119  ILE119      0.0019
     55  CG2       -4.7370   56.7500    9.6880 C.3   119  ILE119      0.0019
     56  CD1       -6.8180   54.4100   10.3030 C.3   119  ILE119      0.0001
     57  N         -4.0650   61.2430   13.4020 N.3   121  ALA121     -0.1231
     58  CA        -2.7600   60.7340   13.8130 C.3   121  ALA121      0.1694
     59  C         -1.6270   61.2920   12.9490 C.2   121  ALA121      0.2591
     60  O         -0.6110   61.7670   13.4740 O.2   121  ALA121     -0.2718
     61  CB        -2.7630   59.1940   13.7980 C.3   121  ALA121      0.0304
     62  N         -1.8280   61.2260   11.6300 N.am  122  VAL122     -0.1980
     63  CA        -0.9850   61.8850   10.6290 C.3   122  VAL122      0.1595
     64  C         -0.8100   63.4040   10.8870 C.2   122  VAL122      0.2287
     65  O          0.3050   63.9100   10.8520 O.2   122  VAL122     -0.2864
     66  CB        -1.5390   61.6120    9.2170 C.3   122  VAL122      0.0276
     67  CG1       -0.7430   62.3350    8.1270 C.3   122  VAL122      0.0022
     68  CG2       -1.6020   60.0880    8.9410 C.3   122  VAL122      0.0022
     69  N          3.0130   55.3200    3.4400 N.3   135  VAL135     -0.1245
     70  CA         3.2410   54.1950    2.5380 C.3   135  VAL135      0.1561
     71  C          2.0310   53.2790    2.6730 C.2   135  VAL135      0.2260
     72  O          1.1680   53.5210    3.5030 O.2   135  VAL135     -0.2867
     73  CB         4.5190   53.4260    2.9190 C.3   135  VAL135      0.0252
     74  CG1        5.7270   54.3550    2.9610 C.3   135  VAL135      0.0019
     75  CG2        4.3500   52.7600    4.2540 C.3   135  VAL135      0.0019
     76  N         -0.1730   50.7710    4.1180 N.3   137  TYR137     -0.1227
     77  CA        -0.4620   50.1380    5.4250 C.3   137  TYR137      0.1736
     78  C          0.1960   50.7530    6.6480 C.2   137  TYR137      0.2595
     79  O          0.0530   50.2200    7.7480 O.2   137  TYR137     -0.2718
     80  CB        -0.2280   48.6100    5.3680 C.3   137  TYR137      0.0548
     81  CG        -0.7920   47.9900    4.1100 C.ar  137  TYR137     -0.0200
     82  CD1       -0.0020   47.1960    3.2990 C.ar  137  TYR137     -0.0009
     83  CD2       -2.1170   48.2180    3.7280 C.ar  137  TYR137     -0.0009
     84  CE1       -0.5070   46.6420    2.1520 C.ar  137  TYR137      0.0417
     85  CE2       -2.6430   47.6500    2.5650 C.ar  137  TYR137      0.0417
     86  CZ        -1.8290   46.8590    1.7820 C.ar  137  TYR137      0.1957
     87  OH        -2.3090   46.2930    0.6090 O.3   137  TYR137     -0.2866
     88  N          0.8920   51.8820    6.4710 N.am  138  ALA138     -0.1966
     89  CA         1.6270   52.4940    7.5690 C.3   138  ALA138      0.1728
     90  C          2.0230   53.9390    7.2690 C.2   138  ALA138      0.2616
     91  O          1.8980   54.3780    6.1360 O.2   138  ALA138     -0.2715
     92  CB         2.8860   51.6600    7.8560 C.3   138  ALA138      0.0334
     93  N          2.5590   54.6370    8.2780 N.am  139  SER139     -0.1950
     94  CA         3.0750   55.9920    8.1430 C.3   139  SER139      0.1924
     95  C          4.5350   56.0300    8.5450 C.2   139  SER139      0.2314
     96  O          4.8990   55.3910    9.5280 O.2   139  SER139     -0.2863
     97  CB         2.3140   56.9360    9.0810 C.3   139  SER139      0.2116
     98  OG         1.0340   57.2650    8.5750 O.3   139  SER139     -0.2180
@<TRIPOS>BOND
     1    87    86    1
     2    86    84   ar
     3    86    85   ar
     4    84    82   ar
     5    70    71    1
     6    70    73    1
     7    70    69    1
     8    85    83   ar
     9    71    72    2
    10    73    74    1
    11    73    75    1
    12    82    81   ar
    13    83    81   ar
    14    81    80    1
    15    76    77    1
    16    80    77    1
    17    77    78    1
    18    91    90    2
    19    88    78   am
    20    88    89    1
    21    78    79    2
    22    90    89    1
    23    90    93   am
    24    89    92    1
    25    48    47    1
    26    67    66    1
    27    94    93    1
    28    94    95    1
    29    94    97    1
    30    95    96    2
    31    98    97    1
    32    47    45   ar
    33    47    46   ar
    34    68    66    1
    35    66    63    1
    36    45    43   ar
    37    46    44   ar
    38    55    53    1
    39    56    54    1
    40    36    35    1
    41    53    54    1
    42    53    50    1
    43    43    42   ar
    44    63    64    1
    45    63    62    1
    46    44    42   ar
    47     4     3    2
    48    65    64    2
    49    51    52    2
    50    51    50    1
    51    34    35   ar
    52    34    32   ar
    53    42    41    1
    54    16    13    1
    55     1     2    1
    56    39    40    2
    57    39    38    1
    58    35    33   ar
    59    50    49    1
    60    62    59   am
    61     3     2    1
    62     3    12   am
    63    32    30   ar
    64    13    12    1
    65    13    14    1
    66    37    38    1
    67     2     5    1
    68    10     8   ar
    69    10    11   ar
    70    38    41    1
    71     8     6   ar
    72    33    31   ar
    73    20    19    2
    74    59    60    2
    75    59    58    1
    76    17    14   am
    77    17    18    1
    78    14    15    2
    79    11     9   ar
    80    57    58    1
    81    30    31   ar
    82    30    29    1
    83     6     5    1
    84     6     7   ar
    85    61    58    1
    86    19    18    1
    87    19    25   am
    88    18    21    1
    89    21    22    1
    90     9     7   ar
    91    29    26    1
    92    26    25    1
    93    26    27    1
    94    24    22    1
    95    22    23    1
    96    27    28    2
