@<TRIPOS>MOLECULE
tmp/1sbzD00.pdb
 126 120 0 0 0
SMALL
GASTEIGER

@<TRIPOS>ATOM
      1  N         14.6620  -23.8220    3.0560 N.3     6  THR6       -0.1203
      2  CA        15.3950  -22.8270    3.7970 C.3     6  THR6        0.1994
      3  C         15.2430  -21.4410    3.1440 C.2     6  THR6        0.2618
      4  O         14.9150  -21.3500    1.9660 O.2     6  THR6       -0.2717
      5  CB        16.8410  -23.3580    3.8810 C.3     6  THR6        0.1784
      6  OG1       17.0570  -23.9380    5.1780 O.3     6  THR6       -0.2211
      7  CG2       17.8340  -22.3100    3.7680 C.3     6  THR6        0.0376
      8  N         15.4740  -20.3780    3.9140 N.am    7  GLY7       -0.1942
      9  CA        15.1450  -19.0120    3.4980 C.3     7  GLY7        0.2014
     10  C         16.1040  -18.3250    2.5380 C.2     7  GLY7        0.2639
     11  O         16.3730  -17.1370    2.6730 O.2     7  GLY7       -0.2714
     12  N         16.6250  -19.0660    1.5710 N.am    8  ALA8       -0.1963
     13  CA        17.3470  -18.4580    0.4630 C.3     8  ALA8        0.1728
     14  C         16.3640  -18.2270   -0.6760 C.2     8  ALA8        0.2616
     15  O         15.3900  -18.9720   -0.8360 O.2     8  ALA8       -0.2715
     16  CB        18.4970  -19.3450    0.0080 C.3     8  ALA8        0.0334
     17  N         16.6040  -17.1910   -1.4710 N.am    9  THR9       -0.1951
     18  CA        15.7520  -16.9770   -2.6230 C.3     9  THR9        0.1897
     19  C         15.8630  -18.2250   -3.5110 C.2     9  THR9        0.2313
     20  O         16.9320  -18.8130   -3.6380 O.2     9  THR9       -0.2863
     21  CB        16.0840  -15.6420   -3.3370 C.3     9  THR9        0.1794
     22  OG1       15.2680  -15.5100   -4.5050 O.3     9  THR9       -0.2208
     23  CG2       17.5170  -15.6160   -3.8770 C.3     9  THR9        0.0378
     24  N         11.8750  -24.1910    7.1980 N.3    32  SER32      -0.1217
     25  CA        12.3330  -23.2450    8.2140 C.3    32  SER32       0.1889
     26  C         11.3690  -22.0650    8.2800 C.2    32  SER32       0.2288
     27  O         10.5600  -21.8870    7.3780 O.2    32  SER32      -0.2866
     28  CB        13.7360  -22.7420    7.8800 C.3    32  SER32       0.2089
     29  OG        13.7060  -21.8700    6.7660 O.3    32  SER32      -0.2183
     30  N         12.0940  -18.9630    7.7930 N.3    34  TRP34      -0.1241
     31  CA        12.3530  -18.0710    6.6650 C.3    34  TRP34       0.1605
     32  C         11.9810  -18.6480    5.2990 C.2    34  TRP34       0.2264
     33  O         11.6830  -17.8950    4.3760 O.2    34  TRP34      -0.2867
     34  CB        13.7730  -17.4910    6.7250 C.3    34  TRP34       0.0550
     35  CG        13.8700  -16.4750    7.8190 C.ar   34  TRP34       0.0003
     36  CD1       14.4530  -16.6370    9.0470 C.ar   34  TRP34       0.0946
     37  CD2       13.3120  -15.1540    7.8140 C.ar   34  TRP34       0.0152
     38  NE1       14.3170  -15.4910    9.7940 N.ar   34  TRP34      -0.2442
     39  CE2       13.6120  -14.5660    9.0660 C.ar   34  TRP34       0.0810
     40  CE3       12.5950  -14.3970    6.8720 C.ar   34  TRP34       0.0012
     41  CZ2       13.2270  -13.2560    9.3990 C.ar   34  TRP34       0.0191
     42  CZ3       12.2080  -13.0940    7.2080 C.ar   34  TRP34       0.0001
     43  CH2       12.5310  -12.5390    8.4610 C.ar   34  TRP34       0.0015
     44  N          8.3500  -17.6470    4.6820 N.3    37  THR37      -0.1203
     45  CA         8.3400  -16.2780    4.1790 C.3    37  THR37       0.1994
     46  C          8.7060  -16.2190    2.6900 C.2    37  THR37       0.2618
     47  O          8.0840  -15.4950    1.9030 O.2    37  THR37      -0.2717
     48  CB         9.3450  -15.4300    4.9870 C.3    37  THR37       0.1784
     49  OG1        9.0140  -15.4710    6.3860 O.3    37  THR37      -0.2211
     50  CG2        9.2280  -13.9560    4.6260 C.3    37  THR37       0.0376
     51  N          9.7300  -16.9800    2.3180 N.am   38  THR38      -0.1952
     52  CA        10.2480  -16.9900    0.9520 C.3    38  THR38       0.1897
     53  C          9.2560  -17.6680   -0.0060 C.2    38  THR38       0.2313
     54  O          9.0520  -17.2050   -1.1290 O.2    38  THR38      -0.2863
     55  CB        11.6630  -17.6540    0.9350 C.3    38  THR38       0.1794
     56  OG1       12.6290  -16.7240    1.4550 O.3    38  THR38      -0.2208
     57  CG2       12.1660  -17.8630   -0.4660 C.3    38  THR38       0.0378
     58  N          6.3930  -15.1760   -0.6200 N.3    41  LEU41      -0.1231
     59  CA         6.8610  -14.1060   -1.5130 C.3    41  LEU41       0.1693
     60  C          7.0650  -14.5390   -2.9700 C.2    41  LEU41       0.2591
     61  O          6.6460  -13.8350   -3.8920 O.2    41  LEU41      -0.2718
     62  CB         8.1630  -13.4860   -0.9760 C.3    41  LEU41       0.0284
     63  CG         8.9160  -12.4870   -1.8770 C.3    41  LEU41       0.0019
     64  CD1        8.1860  -11.1430   -1.9620 C.3    41  LEU41       0.0001
     65  CD2       10.3770  -12.2870   -1.4260 C.3    41  LEU41       0.0001
     66  N          7.6990  -15.6920   -3.1730 N.am   42  GLU42      -0.1979
     67  CA         8.2300  -16.0700   -4.4930 C.3    42  GLU42       0.1602
     68  C          7.3550  -17.0100   -5.3120 C.2    42  GLU42       0.2287
     69  O          7.5950  -17.2030   -6.5120 O.2    42  GLU42      -0.2864
     70  CB         9.6330  -16.6640   -4.3460 C.3    42  GLU42       0.0415
     71  CG        10.5960  -15.7090   -3.6700 C.3    42  GLU42       0.1163
     72  CD        12.0170  -16.2250   -3.5930 C.2    42  GLU42       0.3649
     73  OE1       12.2590  -17.4330   -3.8080 O.co2  42  GLU42      -0.2457
     74  OE2       12.8930  -15.4000   -3.3010 O.co2  42  GLU42      -0.2457
     75  N         20.3220  -22.0400    2.4190 N.3    82  SER82      -0.1217
     76  CA        20.8810  -20.7380    2.7310 C.3    82  SER82       0.1889
     77  C         22.2800  -20.9200    3.3150 C.2    82  SER82       0.2288
     78  O         22.6560  -22.0260    3.7260 O.2    82  SER82      -0.2866
     79  CB        19.9950  -20.0380    3.7560 C.3    82  SER82       0.2089
     80  OG        20.1300  -20.6780    5.0130 O.3    82  SER82      -0.2183
     81  N         23.3460  -19.5560    6.1140 N.3    83  LYS83      -0.1231
     82  CA        23.1870  -19.8050    7.5480 C.3    83  LYS83       0.1693
     83  C         22.9990  -21.3030    7.8250 C.2    83  LYS83       0.2592
     84  O         23.6500  -21.8730    8.7050 O.2    83  LYS83      -0.2718
     85  CB        22.0440  -18.9340    8.1270 C.3    83  LYS83       0.0285
     86  CG        20.8140  -19.6530    8.6950 C.3    83  LYS83       0.0035
     87  CD        20.9900  -19.9780   10.1490 C.3    83  LYS83       0.0206
     88  CE        19.6770  -19.9940   10.8860 C.3    83  LYS83       0.1093
     89  NZ        18.9340  -21.2780   10.7890 N.3    83  LYS83      -0.1314
     90  N         22.1170  -21.9440    7.0700 N.am   84  THR84      -0.1953
     91  CA        21.8700  -23.3680    7.2570 C.3    84  THR84       0.1897
     92  C         23.1060  -24.1940    6.8970 C.2    84  THR84       0.2313
     93  O         23.4790  -25.1110    7.6270 O.2    84  THR84      -0.2863
     94  CB        20.6300  -23.8070    6.4650 C.3    84  THR84       0.1794
     95  OG1       19.4570  -23.3360    7.1450 O.3    84  THR84      -0.2208
     96  CG2       20.4760  -25.3160    6.4960 C.3    84  THR84       0.0378
     97  N         22.4850  -21.5800   -2.3000 N.3   116  ARG116     -0.1231
     98  CA        22.1960  -20.4100   -3.1270 C.3   116  ARG116      0.1694
     99  C         22.5660  -19.1100   -2.4170 C.2   116  ARG116      0.2591
    100  O         22.0170  -18.7720   -1.3650 O.2   116  ARG116     -0.2718
    101  CB        20.7280  -20.3920   -3.6000 C.3   116  ARG116      0.0321
    102  CG        20.4280  -19.4100   -4.7380 C.3   116  ARG116      0.0489
    103  CD        20.2090  -17.9590   -4.2660 C.3   116  ARG116      0.2205
    104  NE        20.3770  -16.9830   -5.3450 N.pl3 116  ARG116     -0.0865
    105  CZ        20.7740  -15.7290   -5.1640 C.cat 116  ARG116      0.5346
    106  NH1       21.0580  -15.2870   -3.9410 N.pl3 116  ARG116      0.1354
    107  NH2       20.8980  -14.9170   -6.2130 N.pl3 116  ARG116      0.1354
    108  N         23.5190  -18.4070   -3.0230 N.am  117  GLU117     -0.1979
    109  CA        23.9880  -17.1020   -2.5900 C.3   117  GLU117      0.1602
    110  C         24.9020  -16.5610   -3.6890 C.2   117  GLU117      0.2287
    111  O         25.5700  -17.3320   -4.3710 O.2   117  GLU117     -0.2864
    112  CB        24.7500  -17.1970   -1.2590 C.3   117  GLU117      0.0415
    113  CG        25.1390  -15.8580   -0.6410 C.3   117  GLU117      0.1163
    114  CD        23.9880  -14.8570   -0.5820 C.2   117  GLU117      0.3649
    115  OE1       23.5790  -14.3300   -1.6400 O.co2 117  GLU117     -0.2457
    116  OE2       23.5110  -14.5750    0.5270 O.co2 117  GLU117     -0.2457
    117  N         31.5380  -18.8220    2.9020 N.3   123  HIS123     -0.1241
    118  CA        30.6430  -19.7030    2.1520 C.3   123  HIS123      0.1621
    119  C         31.4470  -20.8450    1.5310 C.2   123  HIS123      0.2264
    120  O         31.1000  -22.0040    1.6850 O.2   123  HIS123     -0.2867
    121  CB        29.8940  -18.9250    1.0590 C.3   123  HIS123      0.0745
    122  CG        29.1320  -17.7360    1.5680 C.ar  123  HIS123      0.0817
    123  ND1       28.8820  -16.6250    0.7920 N.ar  123  HIS123     -0.2268
    124  CD2       28.5540  -17.4930    2.7710 C.ar  123  HIS123      0.1154
    125  CE1       28.1910  -15.7420    1.4960 C.ar  123  HIS123      0.1986
    126  NE2       27.9740  -16.2480    2.7010 N.ar  123  HIS123     -0.2212
@<TRIPOS>BOND
     1    69    68    2
     2   107   105    1
     3   104   105    2
     4   104   103    1
     5    68    67    1
     6   105   106    1
     7   102   103    1
     8   102   101    1
     9    22    21    1
    10    67    70    1
    11    67    66    1
    12   111   110    2
    13    70    71    1
    14    61    60    2
    15    23    21    1
    16    73    72   ar
    17   110   109    1
    18    71    72    1
    19    20    19    2
    20   101    98    1
    21    72    74   ar
    22    19    18    1
    23    21    18    1
    24    66    60   am
    25    98    99    1
    26    98    97    1
    27   108   109    1
    28   108    99   am
    29    60    59    1
    30    18    17    1
    31   109   112    1
    32    99   100    2
    33    64    63    1
    34    63    65    1
    35    63    62    1
    36   115   114   ar
    37    59    62    1
    38    59    58    1
    39    17    14   am
    40   112   113    1
    41    54    53    2
    42    15    14    2
    43    14    13    1
    44   113   114    1
    45   114   116   ar
    46    57    55    1
    47    53    52    1
    48    16    13    1
    49    13    12    1
    50   123   125   ar
    51   123   122   ar
    52    55    52    1
    53    55    56    1
    54    52    51    1
    55   121   122    1
    56   121   118    1
    57   125   126   ar
    58   119   120    2
    59   119   118    1
    60   122   124   ar
    61    12    10   am
    62    47    46    2
    63     4     3    2
    64   118   117    1
    65    51    46   am
    66    75    76    1
    67    10    11    2
    68    10     9    1
    69    46    45    1
    70   126   124   ar
    71    76    77    1
    72    76    79    1
    73     1     2    1
    74     3     2    1
    75     3     8   am
    76    77    78    2
    77     9     8    1
    78    79    80    1
    79     7     5    1
    80     2     5    1
    81     5     6    1
    82    45    44    1
    83    45    48    1
    84    33    32    2
    85    50    48    1
    86    48    49    1
    87    32    31    1
    88    81    82    1
    89    94    96    1
    90    94    95    1
    91    94    91    1
    92    31    34    1
    93    31    30    1
    94    34    35    1
    95    29    28    1
    96    40    42   ar
    97    40    37   ar
    98    92    91    1
    99    92    93    2
   100    90    91    1
   101    90    83   am
   102    24    25    1
   103    42    43   ar
   104    27    26    2
   105    82    83    1
   106    82    85    1
   107    37    35   ar
   108    37    39   ar
   109    35    36   ar
   110    83    84    2
   111    28    25    1
   112    85    86    1
   113    25    26    1
   114    43    41   ar
   115    86    87    1
   116    36    38   ar
   117    39    41   ar
   118    39    38   ar
   119    87    88    1
   120    89    88    1
