@<TRIPOS>MOLECULE
tmp/1sc6B00.pdb
 220 214 0 0 0
SMALL
GASTEIGER

@<TRIPOS>ATOM
      1  N         32.0500   97.1240   24.1080 N.3    78  ILE78      -0.1245
      2  CA        32.2790   96.2590   22.9540 C.3    78  ILE78       0.1561
      3  C         31.9740   96.9680   21.6420 C.2    78  ILE78       0.2260
      4  O         32.7840   96.9570   20.7100 O.2    78  ILE78      -0.2867
      5  CB        31.4290   94.9880   23.0140 C.3    78  ILE78       0.0252
      6  CG1       31.7670   94.1980   24.2760 C.3    78  ILE78       0.0019
      7  CG2       31.6960   94.1320   21.7780 C.3    78  ILE78       0.0019
      8  CD1       30.9190   92.9730   24.4670 C.3    78  ILE78       0.0001
      9  N         36.8440   96.6800   23.8020 N.3    98  ALA98      -0.1231
     10  CA        37.1220   95.7050   24.8500 C.3    98  ALA98       0.1679
     11  C         36.6600   94.3400   24.3290 C.2    98  ALA98       0.2434
     12  O         35.6140   93.8360   24.7120 O.2    98  ALA98      -0.2733
     13  CB        36.3590   96.0790   26.1210 C.3    98  ALA98       0.0304
     14  N         37.4600   93.7150   23.4590 N.am   99  PRO99      -0.2718
     15  CA        37.0850   92.4190   22.9030 C.3    99  PRO99       0.1535
     16  C         37.0380   91.2190   23.8380 C.2    99  PRO99       0.2598
     17  O         36.3790   90.2470   23.5140 O.2    99  PRO99      -0.2715
     18  CB        38.1100   92.2260   21.7950 C.3    99  PRO99       0.0310
     19  CG        39.3460   92.7870   22.4300 C.3    99  PRO99       0.0237
     20  CD        38.8290   94.0810   23.0520 C.3    99  PRO99       0.0939
     21  N         37.6980   91.2760   24.9940 N.am  100  PHE100     -0.1974
     22  CA        37.7260   90.1060   25.8690 C.3   100  PHE100      0.1639
     23  C         37.1190   90.1780   27.2680 C.2   100  PHE100      0.2290
     24  O         36.8740   89.1400   27.8860 O.2   100  PHE100     -0.2864
     25  CB        39.1710   89.6090   25.9580 C.3   100  PHE100      0.0560
     26  CG        39.7560   89.2340   24.6220 C.ar  100  PHE100     -0.0200
     27  CD1       41.0510   89.6150   24.2820 C.ar  100  PHE100     -0.0042
     28  CD2       39.0000   88.5080   23.6940 C.ar  100  PHE100     -0.0042
     29  CE1       41.5890   89.2840   23.0350 C.ar  100  PHE100     -0.0003
     30  CE2       39.5250   88.1690   22.4480 C.ar  100  PHE100     -0.0003
     31  CZ        40.8230   88.5600   22.1170 C.ar  100  PHE100     -0.0000
     32  N         34.1700   90.7220   28.1520 N.3   102  ASN102     -0.1225
     33  CA        32.8480   90.1290   28.2550 C.3   102  ASN102      0.1785
     34  C         32.8130   88.6290   27.9180 C.2   102  ASN102      0.2597
     35  O         31.7440   88.0310   27.8100 O.2   102  ASN102     -0.2718
     36  CB        31.8660   90.9250   27.3910 C.3   102  ASN102      0.1169
     37  CG        31.5850   92.3130   27.9750 C.2   102  ASN102      0.2627
     38  OD1       30.8900   92.4410   28.9890 O.2   102  ASN102     -0.2716
     39  ND2       32.1440   93.3510   27.3540 N.am  102  ASN102     -0.0877
     40  N         34.0000   88.0400   27.7890 N.am  103  THR103     -0.1953
     41  CA        34.1790   86.6190   27.4900 C.3   103  THR103      0.1897
     42  C         33.2840   85.7280   28.3540 C.2   103  THR103      0.2313
     43  O         32.5340   84.8810   27.8490 O.2   103  THR103     -0.2863
     44  CB        35.6490   86.2140   27.7430 C.3   103  THR103      0.1794
     45  OG1       36.4710   86.7450   26.7020 O.3   103  THR103     -0.2208
     46  CG2       35.8000   84.6980   27.8020 C.3   103  THR103      0.0378
     47  N         29.3670   85.6960   27.6500 N.3   106  VAL106     -0.1245
     48  CA        28.9510   84.9800   26.4460 C.3   106  VAL106      0.1561
     49  C         28.9460   83.4770   26.7500 C.2   106  VAL106      0.2260
     50  O         28.0500   82.7520   26.3350 O.2   106  VAL106     -0.2867
     51  CB        29.8980   85.2520   25.2470 C.3   106  VAL106      0.0252
     52  CG1       29.4270   84.4620   24.0310 C.3   106  VAL106      0.0019
     53  CG2       29.9290   86.7510   24.9200 C.3   106  VAL106      0.0019
     54  N         33.2290   75.3010   18.1390 N.3   146  ILE146     -0.1231
     55  CA        33.9740   75.6840   16.9450 C.3   146  ILE146      0.1692
     56  C         34.6140   77.0230   17.2770 C.2   146  ILE146      0.2592
     57  O         33.9270   78.0340   17.3760 O.2   146  ILE146     -0.2718
     58  CB        33.0380   75.8010   15.7140 C.3   146  ILE146      0.0266
     59  CG1       32.5220   74.4040   15.3300 C.3   146  ILE146      0.0019
     60  CG2       33.7850   76.4470   14.5520 C.3   146  ILE146      0.0020
     61  CD1       31.3320   74.3980   14.3530 C.3   146  ILE146      0.0001
     62  N         35.9350   77.0180   17.4730 N.am  147  GLY147     -0.1957
     63  CA        36.6460   78.2300   17.8510 C.3   147  GLY147      0.1869
     64  C         36.9240   78.1220   19.3470 C.2   147  GLY147      0.2309
     65  O         36.1240   78.5430   20.1790 O.2   147  GLY147     -0.2863
     66  N         38.8930   79.6460   21.6880 N.3   149  GLY149     -0.1210
     67  CA        39.6940   80.7770   22.1340 C.3   149  GLY149      0.1956
     68  C         39.2610   81.2410   23.5150 C.2   149  GLY149      0.2612
     69  O         39.0040   80.4110   24.3950 O.2   149  GLY149     -0.2717
     70  N         39.1660   82.5530   23.7190 N.am  150  HIS150     -0.1961
     71  CA        38.7530   83.0710   25.0220 C.3   150  HIS150      0.1787
     72  C         37.4030   82.5210   25.4680 C.2   150  HIS150      0.2620
     73  O         37.2580   82.0530   26.6020 O.2   150  HIS150     -0.2715
     74  CB        38.6780   84.6060   25.0200 C.3   150  HIS150      0.0785
     75  CG        40.0170   85.2740   24.9930 C.ar  150  HIS150      0.0821
     76  ND1       40.8040   85.3230   23.8640 N.ar  150  HIS150     -0.2267
     77  CD2       40.7230   85.8920   25.9700 C.ar  150  HIS150      0.1154
     78  CE1       41.9370   85.9400   24.1430 C.ar  150  HIS150      0.1986
     79  NE2       41.9140   86.2940   25.4160 N.ar  150  HIS150     -0.2212
     80  N         36.4120   82.5800   24.5860 N.am  151  ILE151     -0.1963
     81  CA        35.0790   82.1000   24.9440 C.3   151  ILE151      0.1727
     82  C         34.9890   80.5770   24.9470 C.2   151  ILE151      0.2616
     83  O         34.4520   79.9930   25.8780 O.2   151  ILE151     -0.2715
     84  CB        34.0100   82.6780   24.0020 C.3   151  ILE151      0.0290
     85  CG1       33.9880   84.2020   24.1410 C.3   151  ILE151      0.0022
     86  CG2       32.6400   82.0910   24.3330 C.3   151  ILE151      0.0023
     87  CD1       33.1950   84.8950   23.0710 C.3   151  ILE151      0.0001
     88  N         35.5250   79.9450   23.9100 N.am  152  GLY152     -0.1955
     89  CA        35.4790   78.4970   23.8270 C.3   152  GLY152      0.1869
     90  C         36.0410   77.8090   25.0600 C.2   152  GLY152      0.2309
     91  O         35.4250   76.9080   25.6080 O.2   152  GLY152     -0.2863
     92  N         36.9110   72.2300   17.5990 N.3   168  TYR168     -0.1227
     93  CA        37.5630   72.3360   16.3080 C.3   168  TYR168      0.1736
     94  C         38.1220   73.7470   16.2170 C.2   168  TYR168      0.2595
     95  O         37.4710   74.7070   16.6210 O.2   168  TYR168     -0.2718
     96  CB        36.5620   72.1200   15.1740 C.3   168  TYR168      0.0548
     97  CG        37.1280   72.4390   13.8120 C.ar  168  TYR168     -0.0200
     98  CD1       37.9330   71.5250   13.1400 C.ar  168  TYR168     -0.0009
     99  CD2       36.8760   73.6720   13.2050 C.ar  168  TYR168     -0.0009
    100  CE1       38.4820   71.8220   11.8910 C.ar  168  TYR168      0.0417
    101  CE2       37.4190   73.9840   11.9530 C.ar  168  TYR168      0.0417
    102  CZ        38.2190   73.0520   11.3080 C.ar  168  TYR168      0.1957
    103  OH        38.7550   73.3500   10.0820 O.3   168  TYR168     -0.2866
    104  N         39.3340   73.8660   15.6890 N.am  169  ASP169     -0.1960
    105  CA        39.9780   75.1550   15.5290 C.3   169  ASP169      0.1840
    106  C         40.9300   75.0260   14.3400 C.2   169  ASP169      0.2622
    107  O         41.2220   73.9170   13.8980 O.2   169  ASP169     -0.2715
    108  CB        40.7540   75.5120   16.7920 C.3   169  ASP169      0.1450
    109  CG        40.9150   77.0090   16.9710 C.2   169  ASP169      0.3671
    110  OD1       40.2510   77.5820   17.8630 O.co2 169  ASP169     -0.2456
    111  OD2       41.7050   77.6120   16.2140 O.co2 169  ASP169     -0.2456
    112  N         41.4190   76.1390   13.8160 N.am  170  ILE170     -0.1963
    113  CA        42.3100   76.0440   12.6690 C.3   170  ILE170      0.1727
    114  C         43.7620   75.8100   13.0540 C.2   170  ILE170      0.2616
    115  O         44.6200   75.7150   12.1890 O.2   170  ILE170     -0.2715
    116  CB        42.2130   77.2870   11.7670 C.3   170  ILE170      0.0290
    117  CG1       42.4400   78.5510   12.5960 C.3   170  ILE170      0.0022
    118  CG2       40.8550   77.3040   11.0650 C.3   170  ILE170      0.0023
    119  CD1       42.4620   79.8220   11.7790 C.3   170  ILE170      0.0001
    120  N         44.0290   75.7200   14.3540 N.am  171  GLU171     -0.1977
    121  CA        45.3820   75.4530   14.8440 C.3   171  GLU171      0.1602
    122  C         45.2770   74.6280   16.1290 C.2   171  GLU171      0.2287
    123  O         44.2280   74.6150   16.7800 O.2   171  GLU171     -0.2864
    124  CB        46.1210   76.7610   15.1200 C.3   171  GLU171      0.0415
    125  CG        45.7290   77.4440   16.4150 C.3   171  GLU171      0.1163
    126  CD        46.4390   78.7740   16.6020 C.2   171  GLU171      0.3649
    127  OE1       47.5960   78.9110   16.1310 O.co2 171  GLU171     -0.2457
    128  OE2       45.8450   79.6800   17.2330 O.co2 171  GLU171     -0.2457
    129  N         45.3610   73.6640   19.8780 N.3   173  LYS173     -0.1245
    130  CA        45.1510   74.4490   21.0860 C.3   173  LYS173      0.1561
    131  C         45.3710   73.5690   22.3060 C.2   173  LYS173      0.2260
    132  O         44.9730   72.3960   22.3120 O.2   173  LYS173     -0.2867
    133  CB        43.7170   74.9780   21.1320 C.3   173  LYS173      0.0271
    134  CG        43.3440   75.9100   19.9970 C.3   173  LYS173      0.0035
    135  CD        43.9460   77.2780   20.2030 C.3   173  LYS173      0.0206
    136  CE        43.4140   78.2410   19.1750 C.3   173  LYS173      0.1093
    137  NZ        44.0050   79.5910   19.3270 N.3   173  LYS173     -0.1314
    138  N         32.1750   80.1920   18.0710 N.3   197  HIS197     -0.1226
    139  CA        32.8830   81.2980   18.7080 C.3   197  HIS197      0.1752
    140  C         34.1270   81.6270   17.9000 C.2   197  HIS197      0.2596
    141  O         35.2580   81.3990   18.3400 O.2   197  HIS197     -0.2718
    142  CB        33.2540   80.9170   20.1410 C.3   197  HIS197      0.0759
    143  CG        32.0650   80.6220   21.0020 C.ar  197  HIS197      0.0818
    144  ND1       31.1870   81.6000   21.4190 N.ar  197  HIS197     -0.2268
    145  CD2       31.5900   79.4540   21.4960 C.ar  197  HIS197      0.1154
    146  CE1       30.2250   81.0470   22.1370 C.ar  197  HIS197      0.1986
    147  NE2       30.4450   79.7450   22.1980 N.ar  197  HIS197     -0.2212
    148  N         33.9080   82.1610   16.7060 N.am  198  VAL198     -0.1966
    149  CA        35.0030   82.5100   15.8140 C.3   198  VAL198      0.1712
    150  C         34.8880   83.9590   15.3590 C.2   198  VAL198      0.2458
    151  O         33.8410   84.5820   15.4990 O.2   198  VAL198     -0.2730
    152  CB        35.0130   81.5930   14.5810 C.3   198  VAL198      0.0289
    153  CG1       35.1820   80.1400   15.0190 C.3   198  VAL198      0.0023
    154  CG2       33.7280   81.7640   13.7910 C.3   198  VAL198      0.0023
    155  N         35.9770   84.5230   14.8150 N.am  199  PRO199     -0.2716
    156  CA        35.9140   85.9160   14.3650 C.3   199  PRO199      0.1536
    157  C         35.1880   86.0740   13.0300 C.2   199  PRO199      0.2598
    158  O         34.8460   85.0870   12.3680 O.2   199  PRO199     -0.2715
    159  CB        37.3830   86.3010   14.2660 C.3   199  PRO199      0.0310
    160  CG        38.0060   85.0050   13.7890 C.3   199  PRO199      0.0237
    161  CD        37.3500   83.9980   14.7110 C.3   199  PRO199      0.0939
    162  N         34.9440   87.3240   12.6550 N.am  200  GLU200     -0.1964
    163  CA        34.2880   87.6470   11.3920 C.3   200  GLU200      0.1733
    164  C         35.3860   87.9350   10.3830 C.2   200  GLU200      0.2616
    165  O         36.1250   88.9090   10.5230 O.2   200  GLU200     -0.2715
    166  CB        33.4190   88.9060   11.5240 C.3   200  GLU200      0.0429
    167  CG        32.1290   88.7420   12.3060 C.3   200  GLU200      0.1163
    168  CD        31.0360   88.0630   11.5030 C.2   200  GLU200      0.3649
    169  OE1       30.6420   88.6090   10.4450 O.co2 200  GLU200     -0.2457
    170  OE2       30.5700   86.9850   11.9350 O.co2 200  GLU200     -0.2457
    171  N         35.5070   87.0850    9.3750 N.am  201  ASN201     -0.1972
    172  CA        36.5040   87.2850    8.3350 C.3   201  ASN201      0.1688
    173  C         36.3930   86.1020    7.3960 C.2   201  ASN201      0.2292
    174  O         35.7190   85.1240    7.7160 O.2   201  ASN201     -0.2864
    175  CB        37.9160   87.4120    8.9370 C.3   201  ASN201      0.1181
    176  CG        38.5000   86.0850    9.3970 C.2   201  ASN201      0.2629
    177  OD1       39.3090   86.0510   10.3190 O.2   201  ASN201     -0.2716
    178  ND2       38.1140   84.9990    8.7490 N.am  201  ASN201     -0.0877
    179  N         37.3680   83.6960    6.1560 N.3   203  SER203     -0.1202
    180  CA        37.4830   82.2790    6.4830 C.3   203  SER203      0.2020
    181  C         36.2570   81.7600    7.2390 C.2   203  SER203      0.2619
    182  O         36.0090   80.5570    7.2670 O.2   203  SER203     -0.2717
    183  CB        38.7430   82.0120    7.3230 C.3   203  SER203      0.2103
    184  OG        38.5240   82.2520    8.7100 O.3   203  SER203     -0.2182
    185  N         35.4780   82.6540    7.8390 N.am  204  THR204     -0.1952
    186  CA        34.3140   82.2000    8.5920 C.3   204  THR204      0.1897
    187  C         32.9480   82.5550    8.0020 C.2   204  THR204      0.2313
    188  O         31.9290   82.0340    8.4520 O.2   204  THR204     -0.2863
    189  CB        34.3660   82.7100   10.0340 C.3   204  THR204      0.1794
    190  OG1       34.3020   84.1360   10.0360 O.3   204  THR204     -0.2208
    191  CG2       35.6600   82.2640   10.7100 C.3   204  THR204      0.0378
    192  N         27.1560   85.1890   19.6770 N.3   223  SER223     -0.1202
    193  CA        27.5350   86.5790   19.4650 C.3   223  SER223      0.2020
    194  C         28.4980   86.6590   18.3060 C.2   223  SER223      0.2618
    195  O         29.7150   86.7280   18.4910 O.2   223  SER223     -0.2717
    196  CB        28.2050   87.1570   20.7190 C.3   223  SER223      0.2103
    197  OG        29.4820   86.5780   20.9420 O.3   223  SER223     -0.2182
    198  N         27.9510   86.6510   17.0990 N.am  224  ARG224     -0.1979
    199  CA        28.7930   86.7130   15.9230 C.3   224  ARG224      0.1597
    200  C         28.1790   87.6590   14.9150 C.2   224  ARG224      0.2287
    201  O         27.7940   88.7790   15.2500 O.2   224  ARG224     -0.2864
    202  CB        28.9210   85.3190   15.3280 C.3   224  ARG224      0.0334
    203  CG        29.3300   84.2810   16.3460 C.3   224  ARG224      0.0492
    204  CD        30.8000   84.3630   16.6750 C.3   224  ARG224      0.2205
    205  NE        31.3920   83.0330   16.6540 N.pl3 224  ARG224     -0.0865
    206  CZ        31.3200   82.2090   15.6150 C.cat 224  ARG224      0.5346
    207  NH1       30.6810   82.5840   14.5170 N.pl3 224  ARG224      0.1354
    208  NH2       31.8890   81.0110   15.6660 N.pl3 224  ARG224      0.1354
    209  N         23.8540   91.4530   21.5890 N.3   263  ILE263     -0.1231
    210  CA        24.5000   90.9230   22.7850 C.3   263  ILE263      0.1692
    211  C         25.8030   91.6730   23.0570 C.2   263  ILE263      0.2592
    212  O         26.3890   91.5530   24.1330 O.2   263  ILE263     -0.2718
    213  CB        24.8240   89.4210   22.6150 C.3   263  ILE263      0.0266
    214  CG1       25.5920   88.9040   23.8360 C.3   263  ILE263      0.0019
    215  CG2       25.6230   89.2080   21.3390 C.3   263  ILE263      0.0020
    216  CD1       26.1140   87.4910   23.6900 C.3   263  ILE263      0.0001
    217  N         26.2460   92.4510   22.0730 N.am  264  GLY264     -0.1957
    218  CA        27.4790   93.2060   22.2150 C.3   264  GLY264      0.1869
    219  C         27.5310   94.0930   23.4450 C.2   264  GLY264      0.2309
    220  O         28.5210   94.7860   23.6740 O.2   264  GLY264     -0.2863
@<TRIPOS>BOND
     1   179   180    1
     2   180   181    1
     3   180   183    1
     4   181   182    2
     5   181   185   am
     6   183   184    1
     7   173   174    2
     8   173   172    1
     9   185   186    1
    10   187   188    2
    11   187   186    1
    12   172   175    1
    13   172   171    1
    14   186   189    1
    15   178   176   am
    16   175   176    1
    17   171   164   am
    18   176   177    2
    19   189   190    1
    20   189   191    1
    21   103   102    1
    22   164   165    2
    23   164   163    1
    24   169   168   ar
    25   118   116    1
    26   102   100   ar
    27   102   101   ar
    28   163   166    1
    29   163   162    1
    30   168   170   ar
    31   168   167    1
    32   166   167    1
    33   116   117    1
    34   116   113    1
    35   119   117    1
    36   100    98   ar
    37   101    99   ar
    38   115   114    2
    39   158   157    2
    40   162   157   am
    41   113   114    1
    42   113   112    1
    43   157   156    1
    44   114   120   am
    45    98    97   ar
    46    99    97   ar
    47   160   159    1
    48   160   161    1
    49   154   152    1
    50    97    96    1
    51   112   106   am
    52   107   106    2
    53   159   156    1
    54   106   105    1
    55    61    59    1
    56   120   121    1
    57   156   155    1
    58   207   206    1
    59    60    58    1
    60   152   153    1
    61   152   149    1
    62   161   155    1
    63   155   150   am
    64   121   124    1
    65   121   122    1
    66   200   201    2
    67   200   199    1
    68   124   125    1
    69    96    93    1
    70   202   199    1
    71   202   203    1
    72    59    58    1
    73   150   151    2
    74   150   149    1
    75   105   104    1
    76   105   108    1
    77   206   208    1
    78   206   205    2
    79   104    94   am
    80    58    55    1
    81   149   148    1
    82   199   198    1
    83   122   123    2
    84   127   126   ar
    85   111   109   ar
    86    94    93    1
    87    94    95    2
    88    93    92    1
    89   203   204    1
    90   125   126    1
    91   126   128   ar
    92   205   204    1
    93   148   140   am
    94   108   109    1
    95    55    56    1
    96    55    54    1
    97   109   110   ar
    98   198   194   am
    99    56    57    2
   100    56    62   am
   101    62    63    1
   102    63    64    1
   103   140   141    2
   104   140   139    1
   105   138   139    1
   106   194   195    2
   107   194   193    1
   108   139   142    1
   109   136   137    1
   110   136   135    1
   111    64    65    2
   112   193   192    1
   113   193   196    1
   114   129   130    1
   115   134   135    1
   116   134   133    1
   117   142   143    1
   118     4     3    2
   119   196   197    1
   120   143   144   ar
   121   143   145   ar
   122   130   133    1
   123   130   131    1
   124   215   213    1
   125   144   146   ar
   126   145   147   ar
   127   209   210    1
   128     3     2    1
   129    66    67    1
   130     7     5    1
   131    18    19    1
   132    18    15    1
   133   217   218    1
   134   217   211   am
   135    31    30   ar
   136    31    29   ar
   137    67    68    1
   138   146   147   ar
   139   218   219    1
   140   131   132    2
   141    19    20    1
   142    30    28   ar
   143   213   210    1
   144   213   214    1
   145   210   211    1
   146    15    14    1
   147    15    16    1
   148     2     5    1
   149     2     1    1
   150     5     6    1
   151    29    27   ar
   152    20    14    1
   153   211   212    2
   154    87    85    1
   155   219   220    2
   156    14    11   am
   157    17    16    2
   158    68    70   am
   159    68    69    2
   160   216   214    1
   161    28    26   ar
   162    70    71    1
   163     9    10    1
   164    89    88    1
   165    89    90    1
   166    16    21   am
   167    76    78   ar
   168    76    75   ar
   169    88    82   am
   170    84    85    1
   171    84    86    1
   172    84    81    1
   173    52    51    1
   174    78    79   ar
   175     6     8    1
   176    27    26   ar
   177    11    12    2
   178    11    10    1
   179    80    81    1
   180    80    72   am
   181    26    25    1
   182    10    13    1
   183    53    51    1
   184    81    82    1
   185    82    83    2
   186    75    74    1
   187    75    77   ar
   188    21    22    1
   189    74    71    1
   190    71    72    1
   191    90    91    2
   192    51    48    1
   193    79    77   ar
   194    72    73    2
   195    22    25    1
   196    22    23    1
   197    50    49    2
   198    48    49    1
   199    48    47    1
   200    45    44    1
   201    23    24    2
   202    39    37   am
   203    36    37    1
   204    36    33    1
   205    41    44    1
   206    41    40    1
   207    41    42    1
   208    44    46    1
   209    40    34   am
   210    35    34    2
   211    43    42    2
   212    34    33    1
   213    37    38    2
   214    32    33    1
