@<TRIPOS>MOLECULE
tmp/1sc7D01.pdb
 98 94 0 0 0
SMALL
GASTEIGER

@<TRIPOS>ATOM
      1  N         94.4060   11.8000   -5.7930 N.3   302  ASP302     -0.1225
      2  CA        93.1170   12.4830   -5.9250 C.3   302  ASP302      0.1805
      3  C         91.9860   11.7320   -5.1860 C.2   302  ASP302      0.2598
      4  O         91.4320   10.7570   -5.7050 O.2   302  ASP302     -0.2718
      5  CB        92.8040   12.6320   -7.4290 C.3   302  ASP302      0.1424
      6  CG        91.8960   13.8150   -7.7440 C.2   302  ASP302      0.3668
      7  OD1       92.3790   14.8060   -8.3390 O.co2 302  ASP302     -0.2456
      8  OD2       90.6930   13.7450   -7.4240 O.co2 302  ASP302     -0.2456
      9  N         91.7610   12.1070   -3.9240 N.am  303  THR303     -0.1939
     10  CA        90.7050   11.5100   -3.0860 C.3   303  THR303      0.2028
     11  C         89.9040   12.6370   -2.4460 C.2   303  THR303      0.2642
     12  O         90.4520   13.7160   -2.1960 O.2   303  THR303     -0.2714
     13  CB        91.2380   10.5990   -1.9180 C.3   303  THR303      0.1808
     14  OG1       91.8400   11.3980   -0.8900 O.3   303  THR303     -0.2208
     15  CG2       92.2230    9.5310   -2.4080 C.3   303  THR303      0.0379
     16  N         88.6240   12.3870   -2.1660 N.am  304  VAL304     -0.1977
     17  CA        87.7530   13.4000   -1.5560 C.3   304  VAL304      0.1596
     18  C         86.9180   12.9180   -0.3740 C.2   304  VAL304      0.2287
     19  O         86.7730   11.7170   -0.1350 O.2   304  VAL304     -0.2864
     20  CB        86.7760   14.0640   -2.5950 C.3   304  VAL304      0.0276
     21  CG1       87.5370   14.9340   -3.5830 C.3   304  VAL304      0.0022
     22  CG2       85.9510   13.0170   -3.3350 C.3   304  VAL304      0.0022
     23  N         83.2220   17.2760   -5.7850 N.3   310  ARG310     -0.1245
     24  CA        83.1080   18.1060   -6.9750 C.3   310  ARG310      0.1563
     25  C         81.8350   17.7480   -7.7500 C.2   310  ARG310      0.2260
     26  O         81.1720   16.7450   -7.4650 O.2   310  ARG310     -0.2867
     27  CB        84.3230   17.9370   -7.8760 C.3   310  ARG310      0.0307
     28  CG        85.6510   18.2930   -7.2490 C.3   310  ARG310      0.0489
     29  CD        86.7600   17.9760   -8.2300 C.3   310  ARG310      0.2205
     30  NE        87.9780   17.5530   -7.5570 N.pl3 310  ARG310     -0.0865
     31  CZ        88.6420   16.4350   -7.8260 C.cat 310  ARG310      0.5346
     32  NH1       88.2150   15.6010   -8.7640 N.pl3 310  ARG310      0.1354
     33  NH2       89.7560   16.1640   -7.1590 N.pl3 310  ARG310      0.1354
     34  N         81.5770   16.4840  -10.5290 N.3   312  GLU312     -0.1231
     35  CA        81.7460   15.2380  -11.2750 C.3   312  GLU312      0.1699
     36  C         81.4780   13.9910  -10.4400 C.2   312  GLU312      0.2592
     37  O         81.2530   12.9020  -10.9780 O.2   312  GLU312     -0.2718
     38  CB        83.1380   15.1750  -11.9290 C.3   312  GLU312      0.0402
     39  CG        84.3570   15.2460  -10.9930 C.3   312  GLU312      0.1161
     40  CD        85.6940   15.4130  -11.7450 C.2   312  GLU312      0.3649
     41  OE1       85.7880   15.0670  -12.9460 O.co2 312  GLU312     -0.2457
     42  OE2       86.6710   15.8910  -11.1290 O.co2 312  GLU312     -0.2457
     43  N         81.4280   14.1770   -9.1250 N.am  313  HIS313     -0.1976
     44  CA        81.2130   13.0690   -8.2000 C.3   313  HIS313      0.1656
     45  C         79.7630   12.7270   -7.9550 C.2   313  HIS313      0.2291
     46  O         79.4700   11.6180   -7.5250 O.2   313  HIS313     -0.2864
     47  CB        81.9730   13.2990   -6.8850 C.3   313  HIS313      0.0771
     48  CG        83.4570   13.4310   -7.0640 C.ar  313  HIS313      0.0820
     49  ND1       84.1790   14.4840   -6.5460 N.ar  313  HIS313     -0.2267
     50  CD2       84.3470   12.6610   -7.7380 C.ar  313  HIS313      0.1154
     51  CE1       85.4470   14.3590   -6.8950 C.ar  313  HIS313      0.1986
     52  NE2       85.5750   13.2610   -7.6180 N.ar  313  HIS313     -0.2212
     53  N         75.7300   12.6690   -9.5720 N.3   315  ASN315     -0.1240
     54  CA        74.8730   12.6730  -10.7530 C.3   315  ASN315      0.1653
     55  C         73.4530   12.6360  -10.2240 C.2   315  ASN315      0.2266
     56  O         73.0810   11.7270   -9.4690 O.2   315  ASN315     -0.2867
     57  CB        75.1540   11.4570  -11.6390 C.3   315  ASN315      0.1155
     58  CG        76.5810   11.4330  -12.1490 C.2   315  ASN315      0.2627
     59  OD1       77.0160   12.3600  -12.8430 O.2   315  ASN315     -0.2716
     60  ND2       77.3370   10.4010  -11.7620 N.am  315  ASN315     -0.0877
     61  N         79.5710    8.6900   -6.8040 N.3   330  ASP330     -0.1225
     62  CA        80.6330    7.8930   -7.4060 C.3   330  ASP330      0.1805
     63  C         81.9560    8.6340   -7.2490 C.2   330  ASP330      0.2598
     64  O         82.3070    9.4730   -8.0820 O.2   330  ASP330     -0.2718
     65  CB        80.3540    7.5740   -8.8910 C.3   330  ASP330      0.1424
     66  CG        81.1730    6.3750   -9.4090 C.2   330  ASP330      0.3668
     67  OD1       81.8900    5.7350   -8.6060 O.co2 330  ASP330     -0.2456
     68  OD2       81.0920    6.0600  -10.6190 O.co2 330  ASP330     -0.2456
     69  N         82.6610    8.3340   -6.1560 N.am  331  PHE331     -0.1962
     70  CA        83.9570    8.9380   -5.8470 C.3   331  PHE331      0.1771
     71  C         84.9220    8.0240   -5.0950 C.2   331  PHE331      0.2619
     72  O         84.5470    6.9320   -4.6580 O.2   331  PHE331     -0.2715
     73  CB        83.7770   10.2580   -5.0760 C.3   331  PHE331      0.0574
     74  CG        83.1390   10.1300   -3.7090 C.ar  331  PHE331     -0.0200
     75  CD1       83.9380   10.0640   -2.5420 C.ar  331  PHE331     -0.0042
     76  CD2       81.7460   10.2000   -3.5650 C.ar  331  PHE331     -0.0042
     77  CE1       83.3610   10.0790   -1.2500 C.ar  331  PHE331     -0.0003
     78  CE2       81.1500   10.2180   -2.2790 C.ar  331  PHE331     -0.0003
     79  CZ        81.9630   10.1590   -1.1170 C.ar  331  PHE331     -0.0000
     80  N         86.1550    8.5060   -4.9270 N.am  332  LEU332     -0.1977
     81  CA        87.2030    7.7970   -4.1930 C.3   332  LEU332      0.1596
     82  C         87.4520    8.5330   -2.8660 C.2   332  LEU332      0.2287
     83  O         87.6600    9.7410   -2.8600 O.2   332  LEU332     -0.2864
     84  CB        88.4820    7.7490   -5.0200 C.3   332  LEU332      0.0297
     85  CG        88.4430    7.1970   -6.4470 C.3   332  LEU332      0.0022
     86  CD1       89.7790    7.4330   -7.0960 C.3   332  LEU332      0.0001
     87  CD2       88.1130    5.7270   -6.4700 C.3   332  LEU332      0.0001
     88  N         86.6930    3.2880   -3.4460 N.3   338  ARG338     -0.1245
     89  CA        85.4870    3.7170   -4.1400 C.3   338  ARG338      0.1563
     90  C         84.2110    3.6890   -3.3160 C.2   338  ARG338      0.2260
     91  O         83.8900    2.6840   -2.6790 O.2   338  ARG338     -0.2867
     92  CB        85.3030    2.8580   -5.3960 C.3   338  ARG338      0.0307
     93  CG        84.2990    3.3830   -6.4200 C.3   338  ARG338      0.0489
     94  CD        84.2820    2.4890   -7.6400 C.3   338  ARG338      0.2205
     95  NE        83.6150    3.1140   -8.7770 N.pl3 338  ARG338     -0.0865
     96  CZ        82.8980    2.4630   -9.6930 C.cat 338  ARG338      0.5346
     97  NH1       82.7360    1.1430   -9.6230 N.pl3 338  ARG338      0.1354
     98  NH2       82.3360    3.1400  -10.6910 N.pl3 338  ARG338      0.1354
@<TRIPOS>BOND
     1    41    40   ar
     2    59    58    2
     3    58    60   am
     4    58    57    1
     5    38    35    1
     6    38    39    1
     7    40    42   ar
     8    40    39    1
     9    57    54    1
    10    35    34    1
    11    35    36    1
    12    37    36    2
    13    54    55    1
    14    54    53    1
    15    98    96    1
    16    68    66   ar
    17    36    43   am
    18    55    56    2
    19    96    97    1
    20    96    95    2
    21    66    65    1
    22    66    67   ar
    23    43    44    1
    24    65    62    1
    25    95    94    1
    26    32    31    1
    27     7     6   ar
    28    29    30    1
    29    29    28    1
    30    44    45    1
    31    44    47    1
    32    64    63    2
    33    45    46    2
    34    27    28    1
    35    27    24    1
    36    31    30    2
    37    31    33    1
    38    25    26    2
    39    25    24    1
    40     6     5    1
    41     6     8   ar
    42    50    52   ar
    43    50    48   ar
    44    94    93    1
    45    52    51   ar
    46     5     2    1
    47    62    63    1
    48    62    61    1
    49    63    69   am
    50    86    85    1
    51    48    47    1
    52    48    49   ar
    53    24    23    1
    54    51    49   ar
    55    87    85    1
    56    85    84    1
    57    93    92    1
    58    69    70    1
    59     2     1    1
    60     2     3    1
    61    70    71    1
    62    70    73    1
    63     4     3    2
    64    92    89    1
    65     3     9   am
    66    71    80   am
    67    71    72    2
    68    73    74    1
    69    84    81    1
    70    80    81    1
    71    81    82    1
    72    89    88    1
    73    89    90    1
    74     9    10    1
    75    74    76   ar
    76    74    75   ar
    77    21    20    1
    78    76    78   ar
    79    22    20    1
    80    90    91    2
    81    10    11    1
    82    10    13    1
    83    82    83    2
    84    20    17    1
    85    75    77   ar
    86    11    12    2
    87    11    16   am
    88    15    13    1
    89    78    79   ar
    90    16    17    1
    91    13    14    1
    92    17    18    1
    93    77    79   ar
    94    18    19    2
