@<TRIPOS>MOLECULE
tmp/1scnA00.pdb
 133 127 0 0 0
SMALL
GASTEIGER

@<TRIPOS>ATOM
      1  N         72.4520   69.6100   67.1710 N.3    61  ASN61      -0.1240
      2  CA        72.6760   68.4840   66.2980 C.3    61  ASN61       0.1653
      3  C         73.7700   67.5860   66.8030 C.2    61  ASN61       0.2266
      4  O         73.6310   66.3750   66.8130 O.2    61  ASN61      -0.2867
      5  CB        72.8850   69.0230   64.8900 C.3    61  ASN61       0.1155
      6  CG        73.1930   67.9830   63.8660 C.2    61  ASN61       0.2627
      7  OD1       72.4710   67.8690   62.8780 O.2    61  ASN61      -0.2716
      8  ND2       74.3830   67.4230   63.9920 N.am   61  ASN61      -0.0877
      9  N         76.9360   67.6270   65.5300 N.3    63  HIS63      -0.1241
     10  CA        78.0080   67.6900   64.5590 C.3    63  HIS63       0.1621
     11  C         79.0890   68.7170   64.8780 C.2    63  HIS63       0.2264
     12  O         80.2840   68.4650   64.7500 O.2    63  HIS63      -0.2867
     13  CB        77.3870   67.9230   63.1750 C.3    63  HIS63       0.0745
     14  CG        78.3000   67.8510   61.9830 C.ar   63  HIS63       0.0817
     15  ND1       79.0290   68.9650   61.5540 N.ar   63  HIS63      -0.2268
     16  CD2       78.4840   66.8610   61.0740 C.ar   63  HIS63       0.1154
     17  CE1       79.6350   68.6480   60.4110 C.ar   63  HIS63       0.1986
     18  NE2       79.3140   67.3850   60.1050 N.ar   63  HIS63      -0.2212
     19  N         75.0660   76.3810   60.2700 N.3    95  LEU95      -0.1245
     20  CA        74.2180   75.2680   59.9030 C.3    95  LEU95       0.1561
     21  C         73.1320   75.1260   60.9240 C.2    95  LEU95       0.2260
     22  O         73.3560   75.3310   62.1050 O.2    95  LEU95      -0.2867
     23  CB        75.0670   73.9710   59.9520 C.3    95  LEU95       0.0270
     24  CG        76.2880   73.9990   59.0370 C.3    95  LEU95       0.0019
     25  CD1       76.9680   72.6340   59.0530 C.3    95  LEU95       0.0001
     26  CD2       75.8510   74.3190   57.6230 C.3    95  LEU95       0.0001
     27  N         69.4850   70.5870   61.6160 N.3    98  SER98      -0.1202
     28  CA        69.4160   69.4290   60.7660 C.3    98  SER98       0.2020
     29  C         70.6840   69.2930   59.9970 C.2    98  SER98       0.2619
     30  O         70.8150   68.3880   59.1720 O.2    98  SER98      -0.2717
     31  CB        68.3140   69.5630   59.7550 C.3    98  SER98       0.2103
     32  OG        67.1030   69.6480   60.4860 O.3    98  SER98      -0.2182
     33  N         71.6590   70.1460   60.3210 N.am   99  GLY99      -0.1942
     34  CA        72.9480   70.0780   59.6370 C.3    99  GLY99       0.2014
     35  C         72.9560   70.7800   58.2920 C.2    99  GLY99       0.2639
     36  O         73.8810   70.5770   57.5020 O.2    99  GLY99      -0.2714
     37  N         71.9840   71.6310   57.9620 N.am  100  SER100     -0.1949
     38  CA        71.9940   72.3180   56.6790 C.3   100  SER100      0.1924
     39  C         72.2060   73.8150   56.7760 C.2   100  SER100      0.2314
     40  O         71.7890   74.4750   57.7330 O.2   100  SER100     -0.2863
     41  CB        70.6890   72.1550   55.9240 C.3   100  SER100      0.2116
     42  OG        70.9610   71.1500   54.9470 O.3   100  SER100     -0.2180
     43  N         83.4480   71.9120   57.8540 N.3   124  SER124     -0.1202
     44  CA        83.0210   70.5500   57.6280 C.3   124  SER124      0.2020
     45  C         81.6210   70.6240   57.0820 C.2   124  SER124      0.2619
     46  O         80.6460   70.3170   57.7330 O.2   124  SER124     -0.2717
     47  CB        82.9760   69.8470   58.9680 C.3   124  SER124      0.2103
     48  OG        84.3340   69.6140   59.3000 O.3   124  SER124     -0.2182
     49  N         81.5330   71.1120   55.8700 N.am  125  LEU125     -0.1965
     50  CA        80.2180   71.3060   55.3280 C.3   125  LEU125      0.1728
     51  C         80.3940   71.5560   53.8320 C.2   125  LEU125      0.2617
     52  O         81.5040   71.7580   53.3630 O.2   125  LEU125     -0.2715
     53  CB        79.6420   72.4870   56.1150 C.3   125  LEU125      0.0311
     54  CG        80.4110   73.7840   55.9010 C.3   125  LEU125      0.0022
     55  CD1       80.0250   74.3710   54.5590 C.3   125  LEU125      0.0001
     56  CD2       79.8780   74.7880   56.9150 C.3   125  LEU125      0.0001
     57  N         79.3850   71.5490   52.9760 N.am  126  GLY126     -0.1940
     58  CA        79.6990   71.7100   51.5670 C.3   126  GLY126      0.2014
     59  C         78.5020   71.1980   50.8000 C.2   126  GLY126      0.2639
     60  O         77.5340   70.7180   51.3790 O.2   126  GLY126     -0.2714
     61  N         78.5080   71.4770   49.5350 N.am  127  GLY127     -0.1954
     62  CA        77.3940   71.1320   48.6980 C.3   127  GLY127      0.1869
     63  C         77.9190   71.0230   47.2870 C.2   127  GLY127      0.2309
     64  O         79.0950   71.2830   47.0210 O.2   127  GLY127     -0.2863
     65  N         85.8480   69.9870   54.3080 N.3   151  ALA151     -0.1231
     66  CA        85.6580   68.5900   53.9790 C.3   151  ALA151      0.1694
     67  C         85.4520   68.4470   52.4540 C.2   151  ALA151      0.2592
     68  O         84.5790   69.1250   51.8820 O.2   151  ALA151     -0.2718
     69  CB        84.3050   68.2110   54.5770 C.3   151  ALA151      0.0304
     70  N         86.0970   67.4880   51.7870 N.am  152  ALA152     -0.1966
     71  CA        85.8880   67.3120   50.3470 C.3   152  ALA152      0.1728
     72  C         84.4960   66.8100   49.9480 C.2   152  ALA152      0.2617
     73  O         84.0500   66.9470   48.8120 O.2   152  ALA152     -0.2715
     74  CB        86.9330   66.3240   49.8770 C.3   152  ALA152      0.0334
     75  N         83.8220   66.0860   50.8320 N.am  153  GLY153     -0.1940
     76  CA        82.5290   65.5120   50.4460 C.3   153  GLY153      0.2014
     77  C         82.4280   64.0370   50.7800 C.2   153  GLY153      0.2639
     78  O         83.4280   63.4040   51.0050 O.2   153  GLY153     -0.2714
     79  N         81.2550   63.4500   50.8930 N.am  154  ASN154     -0.1958
     80  CA        81.1950   62.0450   51.2380 C.3   154  ASN154      0.1819
     81  C         80.4750   61.3500   50.1110 C.2   154  ASN154      0.2622
     82  O         79.5070   60.6090   50.2560 O.2   154  ASN154     -0.2715
     83  CB        80.5270   61.8260   52.6150 C.3   154  ASN154      0.1195
     84  CG        81.3080   62.5980   53.6510 C.2   154  ASN154      0.2630
     85  OD1       82.5680   62.6800   53.5790 O.2   154  ASN154     -0.2716
     86  ND2       80.5690   63.2320   54.5730 N.am  154  ASN154     -0.0877
     87  N         80.8560   61.7070   48.9220 N.am  155  SER155     -0.1950
     88  CA        80.1610   61.1070   47.8090 C.3   155  SER155      0.1924
     89  C         80.8400   59.9100   47.1620 C.2   155  SER155      0.2314
     90  O         80.2790   59.4080   46.1910 O.2   155  SER155     -0.2863
     91  CB        79.9540   62.0940   46.6900 C.3   155  SER155      0.2116
     92  OG        79.3030   63.2470   47.2370 O.3   155  SER155     -0.2180
     93  N         83.0440   68.5930   46.7530 N.3   165  GLY165     -0.1210
     94  CA        81.9630   69.5720   46.9470 C.3   165  GLY165      0.1956
     95  C         82.4930   70.9880   47.0770 C.2   165  GLY165      0.2611
     96  O         83.7010   71.1580   47.1370 O.2   165  GLY165     -0.2717
     97  N         81.6360   72.0130   47.2080 N.am  166  TYR166     -0.1976
     98  CA        82.0950   73.3850   47.4420 C.3   166  TYR166      0.1639
     99  C         81.7610   73.7010   48.8610 C.2   166  TYR166      0.2290
    100  O         80.7240   73.2390   49.3260 O.2   166  TYR166     -0.2864
    101  CB        81.1440   74.3700   46.8010 C.3   166  TYR166      0.0560
    102  CG        81.4720   74.2440   45.3790 C.ar  166  TYR166     -0.0198
    103  CD1       82.5130   75.0530   44.9420 C.ar  166  TYR166     -0.0009
    104  CD2       80.7070   73.4740   44.5120 C.ar  166  TYR166     -0.0009
    105  CE1       82.8990   75.0140   43.6060 C.ar  166  TYR166      0.0417
    106  CE2       81.0950   73.4200   43.1750 C.ar  166  TYR166      0.0417
    107  CZ        82.1860   74.1720   42.7500 C.ar  166  TYR166      0.1957
    108  OH        82.5240   74.1270   41.4210 O.3   166  TYR166     -0.2866
    109  N         81.4250   59.1050   61.1380 N.3   217  ASN217     -0.1225
    110  CA        82.2950   58.8770   60.0060 C.3   217  ASN217      0.1785
    111  C         82.0750   59.9960   59.0190 C.2   217  ASN217      0.2598
    112  O         80.9920   60.4960   58.8890 O.2   217  ASN217     -0.2718
    113  CB        81.8030   57.6350   59.2560 C.3   217  ASN217      0.1169
    114  CG        82.1660   56.3120   59.8890 C.2   217  ASN217      0.2627
    115  OD1       82.8600   56.2440   60.9180 O.2   217  ASN217     -0.2716
    116  ND2       81.7220   55.2090   59.3020 N.am  217  ASN217     -0.0877
    117  N         83.0680   60.4370   58.2970 N.am  218  GLY218     -0.1942
    118  CA        82.8370   61.5000   57.3680 C.3   218  GLY218      0.2014
    119  C         84.0870   62.3090   57.1030 C.2   218  GLY218      0.2640
    120  O         84.9660   62.4730   57.9410 O.2   218  GLY218     -0.2714
    121  N         84.1080   62.8480   55.8750 N.am  219  THR219     -0.1936
    122  CA        85.1500   63.8000   55.5500 C.3   219  THR219      0.2028
    123  C         85.0070   64.9640   56.5390 C.2   219  THR219      0.2642
    124  O         85.9550   65.6620   56.9380 O.2   219  THR219     -0.2714
    125  CB        85.1970   64.2190   54.0650 C.3   219  THR219      0.1808
    126  OG1       83.9490   64.7560   53.6890 O.3   219  THR219     -0.2208
    127  CG2       85.4960   63.0340   53.1640 C.3   219  THR219      0.0379
    128  N         83.7920   65.1650   57.0200 N.am  220  SER220     -0.1949
    129  CA        83.6040   66.1750   58.0500 C.3   220  SER220      0.1924
    130  C         84.5400   65.9790   59.2310 C.2   220  SER220      0.2314
    131  O         84.8250   66.9540   59.9450 O.2   220  SER220     -0.2863
    132  CB        82.1850   66.2500   58.6170 C.3   220  SER220      0.2116
    133  OG        81.1940   66.7820   57.7220 O.3   220  SER220     -0.2180
@<TRIPOS>BOND
     1   108   107    1
     2   107   106   ar
     3   107   105   ar
     4   106   104   ar
     5   105   103   ar
     6   104   102   ar
     7   103   102   ar
     8   102   101    1
     9    90    89    2
    10    91    92    1
    11    91    88    1
    12    93    94    1
    13   101    98    1
    14    94    95    1
    15    64    63    2
    16    95    96    2
    17    95    97   am
    18    89    88    1
    19    97    98    1
    20    63    62    1
    21    98    99    1
    22    88    87    1
    23    62    61    1
    24    73    72    2
    25    99   100    2
    26    87    81   am
    27    61    59   am
    28    74    71    1
    29    72    71    1
    30    72    75   am
    31    81    82    2
    32    81    80    1
    33    71    70    1
    34    76    77    1
    35    76    75    1
    36    77    79   am
    37    77    78    2
    38    59    60    2
    39    59    58    1
    40    79    80    1
    41    80    83    1
    42    58    57    1
    43    70    67   am
    44    68    67    2
    45    67    66    1
    46    83    84    1
    47    57    51   am
    48   127   125    1
    49    52    51    2
    50    85    84    2
    51    84    86   am
    52   126   125    1
    53    51    50    1
    54    66    65    1
    55    66    69    1
    56   125   122    1
    57    55    54    1
    58    42    41    1
    59    50    49    1
    60    50    53    1
    61   122   121    1
    62   122   123    1
    63    49    45   am
    64   121   119   am
    65    54    53    1
    66    54    56    1
    67    41    38    1
    68   123   124    2
    69   123   128   am
    70    38    39    1
    71    38    37    1
    72    39    40    2
    73   128   129    1
    74    45    44    1
    75    45    46    2
    76   119   118    1
    77   119   120    2
    78   118   117    1
    79    36    35    2
    80    26    24    1
    81    44    43    1
    82    44    47    1
    83   133   132    1
    84    37    35   am
    85   129   132    1
    86   129   130    1
    87    35    34    1
    88   117   111   am
    89   112   111    2
    90    47    48    1
    91   111   110    1
    92    24    25    1
    93    24    23    1
    94    30    29    2
    95   130   131    2
    96   113   114    1
    97   113   110    1
    98   116   114   am
    99    34    33    1
   100    31    32    1
   101    31    28    1
   102   114   115    2
   103    20    23    1
   104    20    19    1
   105    20    21    1
   106    29    33   am
   107    29    28    1
   108   110   109    1
   109    18    17   ar
   110    18    16   ar
   111    17    15   ar
   112    28    27    1
   113    21    22    2
   114    16    14   ar
   115    15    14   ar
   116    14    13    1
   117     7     6    2
   118    13    10    1
   119     6     8   am
   120     6     5    1
   121    10    11    1
   122    10     9    1
   123    12    11    2
   124     5     2    1
   125     2     3    1
   126     2     1    1
   127     3     4    2
