@<TRIPOS>MOLECULE
tmp/1scwA00.pdb
 115 110 0 0 0
SMALL
GASTEIGER

@<TRIPOS>ATOM
      1  N         15.8890   -8.9060   32.1990 N.3    59  GLY59      -0.1210
      2  CA        15.8660   -9.7630   33.3750 C.3    59  GLY59       0.1956
      3  C         14.7810   -9.3590   34.3080 C.2    59  GLY59       0.2612
      4  O         13.6330   -9.0930   33.9660 O.2    59  GLY59      -0.2717
      5  N         15.1600   -9.3370   35.6040 N.am   60  SER60      -0.1952
      6  CA        14.2070   -9.1640   36.6900 C.3    60  SER60       0.1924
      7  C         13.5510   -7.8060   36.7420 C.2    60  SER60       0.2314
      8  O         12.6020   -7.6390   37.5170 O.2    60  SER60      -0.2863
      9  CB        14.9210   -9.4590   38.0190 C.3    60  SER60       0.2116
     10  OG        15.2850  -10.8560   38.0740 O.3    60  SER60      -0.2180
     11  N         13.7350  -20.0100   46.6310 N.3   112  ASP112     -0.1239
     12  CA        13.9970  -19.6190   45.2450 C.3   112  ASP112      0.1674
     13  C         14.5210  -20.8350   44.4610 C.2   112  ASP112      0.2266
     14  O         15.6690  -21.2750   44.7110 O.2   112  ASP112     -0.2867
     15  CB        15.0070  -18.5040   45.2060 C.3   112  ASP112      0.1410
     16  CG        14.9990  -17.8720   43.7810 C.2   112  ASP112      0.3668
     17  OD1       14.8480  -18.5760   42.7990 O.co2 112  ASP112     -0.2456
     18  OD2       15.2560  -16.6820   43.6370 O.co2 112  ASP112     -0.2456
     19  N         12.2310  -10.3990   54.5370 N.3   155  TYR155     -0.1241
     20  CA        12.5370  -10.2140   53.1050 C.3   155  TYR155      0.1605
     21  C         13.5320  -11.2300   52.6300 C.2   155  TYR155      0.2264
     22  O         14.6020  -11.3760   53.2680 O.2   155  TYR155     -0.2867
     23  CB        13.1010   -8.8020   52.9290 C.3   155  TYR155      0.0534
     24  CG        13.5560   -8.5610   51.5310 C.ar  155  TYR155     -0.0201
     25  CD1       12.6410   -8.2780   50.4840 C.ar  155  TYR155     -0.0009
     26  CD2       14.8970   -8.6820   51.1590 C.ar  155  TYR155     -0.0009
     27  CE1       13.0730   -8.0830   49.1960 C.ar  155  TYR155      0.0417
     28  CE2       15.3500   -8.5000   49.8760 C.ar  155  TYR155      0.0417
     29  CZ        14.3970   -8.1970   48.8990 C.ar  155  TYR155      0.1957
     30  OH        14.8570   -8.0100   47.6430 O.3   155  TYR155     -0.2866
     31  N         14.6460  -12.3640   48.6600 N.3   157  TYR157     -0.1241
     32  CA        14.2970  -12.3020   47.2440 C.3   157  TYR157      0.1605
     33  C         14.1170  -13.7110   46.6740 C.2   157  TYR157      0.2264
     34  O         14.9650  -14.5930   46.8790 O.2   157  TYR157     -0.2867
     35  CB        15.3700  -11.6380   46.4740 C.3   157  TYR157      0.0534
     36  CG        15.1250  -11.2820   45.0620 C.ar  157  TYR157     -0.0201
     37  CD1       14.5890  -10.0300   44.7460 C.ar  157  TYR157     -0.0009
     38  CD2       15.4150  -12.1120   44.0070 C.ar  157  TYR157     -0.0009
     39  CE1       14.3490   -9.6990   43.4280 C.ar  157  TYR157      0.0417
     40  CE2       15.2520  -11.7780   42.6840 C.ar  157  TYR157      0.0417
     41  CZ        14.7100  -10.5490   42.4100 C.ar  157  TYR157      0.1957
     42  OH        14.5940  -10.1080   41.1040 O.3   157  TYR157     -0.2866
     43  N         12.6380  -15.6620   42.9830 N.3   159  ASN159     -0.1240
     44  CA        11.9400  -15.7360   41.6980 C.3   159  ASN159      0.1653
     45  C         10.6350  -16.4380   41.7870 C.2   159  ASN159      0.2266
     46  O          9.6720  -16.1400   41.0220 O.2   159  ASN159     -0.2867
     47  CB        12.9030  -16.4650   40.7020 C.3   159  ASN159      0.1155
     48  CG        13.8990  -15.4240   40.2600 C.2   159  ASN159      0.2627
     49  OD1       13.5890  -14.4100   39.6470 O.2   159  ASN159     -0.2716
     50  ND2       15.1750  -15.7090   40.5360 N.am  159  ASN159     -0.0877
     51  N         12.8900  -20.3480   32.4190 N.3   231  TRP231     -0.1241
     52  CA        13.1110  -20.4960   33.8410 C.3   231  TRP231      0.1605
     53  C         12.5860  -19.2900   34.6220 C.2   231  TRP231      0.2264
     54  O         12.4210  -19.4350   35.8180 O.2   231  TRP231     -0.2867
     55  CB        14.5660  -20.7340   34.1570 C.3   231  TRP231      0.0550
     56  CG        15.4540  -19.6190   33.7980 C.ar  231  TRP231      0.0003
     57  CD1       16.0920  -19.5660   32.5930 C.ar  231  TRP231      0.0946
     58  CD2       15.7670  -18.5000   34.5910 C.ar  231  TRP231      0.0152
     59  NE1       16.8240  -18.4520   32.5940 N.ar  231  TRP231     -0.2442
     60  CE2       16.6840  -17.7460   33.7620 C.ar  231  TRP231      0.0810
     61  CE3       15.3810  -18.0770   35.9120 C.ar  231  TRP231      0.0012
     62  CZ2       17.1350  -16.5950   34.3170 C.ar  231  TRP231      0.0191
     63  CZ3       15.8990  -16.9170   36.3890 C.ar  231  TRP231      0.0001
     64  CH2       16.8260  -16.1000   35.5830 C.ar  231  TRP231      0.0015
     65  N          8.9470  -13.5400   35.9280 N.3   235  ALA235     -0.1231
     66  CA         9.9970  -13.0610   36.8300 C.3   235  ALA235      0.1697
     67  C         11.1700  -12.4600   36.0610 C.2   235  ALA235      0.2628
     68  O         12.0600  -11.8620   36.6930 O.2   235  ALA235     -0.2714
     69  CB        10.4840  -14.1730   37.7420 C.3   235  ALA235      0.0304
     70  N         11.2490  -12.6180   34.7390 N.am  236  GLY236     -0.1787
     71  CA        12.4980  -12.1730   34.0790 C.2   236  GLY236      0.0979
     72  C         12.5930  -12.1920   32.5550 C.3   236  GLY236      0.2260
     73  O         13.7280  -11.9220   32.1000 O.3   236  GLY236     -0.2137
     74  N         12.0570   -1.6310   43.4750 N.3   283  ARG283     -0.1245
     75  CA        13.1930   -1.3840   44.3640 C.3   283  ARG283      0.1563
     76  C         13.3540    0.0910   44.6310 C.2   283  ARG283      0.2260
     77  O         13.0970    0.9320   43.7560 O.2   283  ARG283     -0.2867
     78  CB        14.4900   -1.9220   43.7590 C.3   283  ARG283      0.0307
     79  CG        14.5130   -3.3750   43.4050 C.3   283  ARG283      0.0489
     80  CD        15.9290   -3.8040   43.0830 C.3   283  ARG283      0.2205
     81  NE        16.1790   -5.1720   42.9370 N.pl3 283  ARG283     -0.0865
     82  CZ        16.2440   -6.0880   43.9650 C.cat 283  ARG283      0.5346
     83  NH1       16.0300   -5.6080   45.2240 N.pl3 283  ARG283      0.1354
     84  NH2       16.4850   -7.3140   43.7260 N.pl3 283  ARG283      0.1354
     85  N         14.2030   -1.0800   39.1220 N.3   296  HIS296     -0.1226
     86  CA        14.5650   -2.4630   39.3450 C.3   296  HIS296      0.1752
     87  C         15.8570   -2.7510   38.6360 C.2   296  HIS296      0.2596
     88  O         16.2900   -2.0680   37.6840 O.2   296  HIS296     -0.2718
     89  CB        13.4380   -3.4120   38.8880 C.3   296  HIS296      0.0759
     90  CG        13.2820   -4.6580   39.6890 C.ar  296  HIS296      0.0818
     91  ND1       14.1560   -5.7460   39.6800 N.ar  296  HIS296     -0.2268
     92  CD2       12.3390   -4.9740   40.6020 C.ar  296  HIS296      0.1154
     93  CE1       13.6620   -6.6560   40.5580 C.ar  296  HIS296      0.1986
     94  NE2       12.5730   -6.2270   41.1360 N.ar  296  HIS296     -0.2212
     95  N         16.5100   -3.8320   39.0470 N.am  297  THR297     -0.1953
     96  CA        17.6990   -4.4340   38.4530 C.3   297  THR297      0.1897
     97  C         17.3700   -5.7280   37.7030 C.2   297  THR297      0.2313
     98  O         16.3220   -6.3460   37.9560 O.2   297  THR297     -0.2863
     99  CB        18.7040   -4.7070   39.5850 C.3   297  THR297      0.1794
    100  OG1       18.0030   -5.3860   40.6280 O.3   297  THR297     -0.2208
    101  CG2       19.2810   -3.4470   40.1020 C.3   297  THR297      0.0378
    102  N         19.6360   -9.3760   36.0480 N.3   299  THR299     -0.1203
    103  CA        20.8630  -10.1210   35.9810 C.3   299  THR299      0.1994
    104  C         20.7430  -11.3830   35.1290 C.2   299  THR299      0.2617
    105  O         21.5570  -12.2770   35.2690 O.2   299  THR299     -0.2717
    106  CB        21.3660  -10.5360   37.3920 C.3   299  THR299      0.1784
    107  OG1       20.4810  -11.4880   37.9590 O.3   299  THR299     -0.2211
    108  CG2       21.4440   -9.3730   38.3660 C.3   299  THR299      0.0376
    109  N         19.7750  -11.4360   34.2560 N.am  300  VAL300     -0.1979
    110  CA        19.5980  -12.6020   33.3900 C.3   300  VAL300      0.1595
    111  C         20.8460  -12.8490   32.5830 C.2   300  VAL300      0.2287
    112  O         21.6060  -11.8950   32.3050 O.2   300  VAL300     -0.2864
    113  CB        18.3190  -12.4320   32.5200 C.3   300  VAL300      0.0276
    114  CG1       18.4760  -11.2380   31.5630 C.3   300  VAL300      0.0022
    115  CG2       17.9950  -13.6530   31.7030 C.3   300  VAL300      0.0022
@<TRIPOS>BOND
     1   114   113    1
     2   115   113    1
     3    73    72    1
     4     1     2    1
     5   112   111    2
     6    51    52    1
     7   113   110    1
     8    72    71    1
     9   111   110    1
    10    57    59   ar
    11    57    56   ar
    12    59    60   ar
    13     2     3    1
    14   110   109    1
    15    60    62   ar
    16    60    58   ar
    17    56    55    1
    18    56    58   ar
    19    52    55    1
    20    52    53    1
    21     4     3    2
    22    71    70    2
    23   109   104   am
    24     3     5   am
    25    62    64   ar
    26    58    61   ar
    27    53    54    2
    28    70    67    1
    29   104   105    2
    30   104   103    1
    31    64    63   ar
    32     5     6    1
    33    61    63   ar
    34    65    66    1
    35   103   102    1
    36   103   106    1
    37    67    68    2
    38    67    66    1
    39     6     7    1
    40     6     9    1
    41     7     8    2
    42    66    69    1
    43   106   107    1
    44   106   108    1
    45    88    87    2
    46    97    98    2
    47    97    96    1
    48     9    10    1
    49    96    95    1
    50    96    99    1
    51    87    95   am
    52    87    86    1
    53    89    86    1
    54    89    90    1
    55    85    86    1
    56    99   101    1
    57    99   100    1
    58    49    48    2
    59    91    90   ar
    60    91    93   ar
    61    90    92   ar
    62    48    50   am
    63    48    47    1
    64    93    94   ar
    65    92    94   ar
    66    47    44    1
    67    46    45    2
    68    42    41    1
    69    44    45    1
    70    44    43    1
    71    41    40   ar
    72    41    39   ar
    73    40    38   ar
    74    17    16   ar
    75    81    80    1
    76    81    82    2
    77    80    79    1
    78    79    78    1
    79    39    37   ar
    80    74    75    1
    81    18    16   ar
    82    84    82    1
    83    77    76    2
    84    78    75    1
    85    16    15    1
    86    82    83    1
    87    38    36   ar
    88    75    76    1
    89    13    14    2
    90    13    12    1
    91    37    36   ar
    92    36    35    1
    93    15    12    1
    94    12    11    1
    95    35    32    1
    96    33    34    2
    97    33    32    1
    98    32    31    1
    99    30    29    1
   100    29    27   ar
   101    29    28   ar
   102    27    25   ar
   103    28    26   ar
   104    25    24   ar
   105    26    24   ar
   106    24    23    1
   107    21    20    1
   108    21    22    2
   109    23    20    1
   110    20    19    1
