@<TRIPOS>MOLECULE
tmp/1sd1A00.pdb
 156 147 0 0 0
SMALL
GASTEIGER

@<TRIPOS>ATOM
      1  N         65.5610   11.8850   33.2390 N.3    10  THR10      -0.1218
      2  CA        64.4170   11.0090   33.4580 C.3    10  THR10       0.1862
      3  C         64.6810    9.6450   32.8290 C.2    10  THR10       0.2287
      4  O         64.8910    9.5450   31.6210 O.2    10  THR10      -0.2866
      5  CB        63.1430   11.5970   32.8220 C.3    10  THR10       0.1770
      6  OG1       63.0240   12.9810   33.1750 O.3    10  THR10      -0.2211
      7  CG2       61.9130   10.8450   33.3100 C.3    10  THR10       0.0375
      8  N         66.7280   14.6210   38.7470 N.3    53  HIS53      -0.1241
      9  CA        65.4550   14.7800   39.4490 C.3    53  HIS53       0.1621
     10  C         65.3240   13.9540   40.7210 C.2    53  HIS53       0.2264
     11  O         64.2180   13.8020   41.2510 O.2    53  HIS53      -0.2867
     12  CB        64.3100   14.4270   38.5030 C.3    53  HIS53       0.0745
     13  CG        64.3070   15.2350   37.2450 C.ar   53  HIS53       0.0817
     14  ND1       63.7830   16.5070   37.1800 N.ar   53  HIS53      -0.2268
     15  CD2       64.8190   14.9750   36.0190 C.ar   53  HIS53       0.1154
     16  CE1       63.9730   16.9970   35.9670 C.ar   53  HIS53       0.1986
     17  NE2       64.6010   16.0860   35.2430 N.ar   53  HIS53      -0.2212
     18  N         62.7380   10.4960   41.2090 N.3    57  HIS57      -0.1241
     19  CA        62.1740   11.5090   40.3210 C.3    57  HIS57       0.1621
     20  C         61.0010   12.2310   40.9680 C.2    57  HIS57       0.2264
     21  O         59.8430   12.0180   40.6050 O.2    57  HIS57      -0.2867
     22  CB        61.7280   10.8880   38.9950 C.3    57  HIS57       0.0745
     23  CG        61.4280   11.9020   37.9340 C.ar   57  HIS57       0.0817
     24  ND1       62.0480   11.8970   36.7030 N.ar   57  HIS57      -0.2268
     25  CD2       60.5970   12.9720   37.9310 C.ar   57  HIS57       0.1154
     26  CE1       61.6130   12.9200   35.9890 C.ar   57  HIS57       0.1986
     27  NE2       60.7320   13.5880   36.7110 N.ar   57  HIS57      -0.2212
     28  N         61.4730   20.1010   36.7870 N.3    61  PRO61      -0.2116
     29  CA        62.5300   20.8890   36.1380 C.3    61  PRO61       0.1372
     30  C         62.7720   22.2740   36.7260 C.2    61  PRO61       0.2244
     31  O         63.9170   22.6710   36.9350 O.2    61  PRO61      -0.2868
     32  CB        62.0650   20.9510   34.6860 C.3    61  PRO61       0.0268
     33  CG        61.4140   19.6200   34.5050 C.3    61  PRO61       0.0207
     34  CD        60.5900   19.4920   35.7770 C.3    61  PRO61       0.0892
     35  N         69.3530   13.6460   28.5540 N.3    85  THR85      -0.1203
     36  CA        68.0790   14.3280   28.6660 C.3    85  THR85       0.1994
     37  C         67.1290   13.8720   27.5760 C.2    85  THR85       0.2618
     38  O         67.5360   13.6360   26.4370 O.2    85  THR85      -0.2717
     39  CB        68.2400   15.8580   28.5480 C.3    85  THR85       0.1784
     40  OG1       66.9450   16.4760   28.5750 O.3    85  THR85      -0.2211
     41  CG2       68.9390   16.2240   27.2350 C.3    85  THR85       0.0376
     42  N         65.8620   13.7220   27.9340 N.am   86  ALA86      -0.1965
     43  CA        64.8640   13.3580   26.9480 C.3    86  ALA86       0.1728
     44  C         64.5250   14.6980   26.3090 C.2    86  ALA86       0.2616
     45  O         64.7900   15.7480   26.8950 O.2    86  ALA86      -0.2715
     46  CB        63.6260   12.7680   27.6270 C.3    86  ALA86       0.0334
     47  N         63.9560   14.6740   25.1120 N.am   87  CYS87      -0.1954
     48  CA        63.5810   15.9140   24.4480 C.3    87  CYS87       0.1843
     49  C         62.6010   15.6340   23.3250 C.2    87  CYS87       0.2626
     50  O         62.4940   14.5030   22.8410 O.2    87  CYS87      -0.2714
     51  CB        64.8210   16.6210   23.8830 C.3    87  CYS87       0.0997
     52  SG        65.6970   15.7130   22.5880 S.3    87  CYS87      -0.0797
     53  N         61.8690   16.6650   22.9270 N.am   88  GLY88      -0.1954
     54  CA        60.9330   16.5090   21.8360 C.3    88  GLY88       0.1869
     55  C         61.6440   16.9380   20.5660 C.2    88  GLY88       0.2309
     56  O         62.4910   17.8320   20.6010 O.2    88  GLY88      -0.2863
     57  N         62.2670   25.1200   27.7850 N.3   164  ILE164     -0.1245
     58  CA        61.0880   25.8080   28.2940 C.3   164  ILE164      0.1561
     59  C         61.0250   25.6450   29.8080 C.2   164  ILE164      0.2260
     60  O         61.6310   24.7250   30.3720 O.2   164  ILE164     -0.2867
     61  CB        59.7820   25.2500   27.6570 C.3   164  ILE164      0.0252
     62  CG1       59.6180   23.7630   27.9980 C.3   164  ILE164      0.0019
     63  CG2       59.8200   25.4560   26.1400 C.3   164  ILE164      0.0019
     64  CD1       58.3690   23.1080   27.3860 C.3   164  ILE164      0.0001
     65  N         53.8160   21.0160   28.8840 N.3   169  PHE169     -0.1227
     66  CA        54.4080   20.8850   27.5620 C.3   169  PHE169      0.1736
     67  C         53.9580   22.1340   26.8000 C.2   169  PHE169      0.2596
     68  O         53.0820   22.8700   27.2700 O.2   169  PHE169     -0.2718
     69  CB        53.8980   19.6200   26.8590 C.3   169  PHE169      0.0547
     70  CG        54.5170   18.3480   27.3760 C.ar  169  PHE169     -0.0202
     71  CD1       55.8830   18.1180   27.2330 C.ar  169  PHE169     -0.0042
     72  CD2       53.7350   17.3780   27.9990 C.ar  169  PHE169     -0.0042
     73  CE1       56.4640   16.9350   27.7040 C.ar  169  PHE169     -0.0003
     74  CE2       54.3030   16.1920   28.4740 C.ar  169  PHE169     -0.0003
     75  CZ        55.6700   15.9710   28.3270 C.ar  169  PHE169     -0.0000
     76  N         54.5520   22.3710   25.6330 N.am  170  SER170     -0.1952
     77  CA        54.2340   23.5370   24.8140 C.3   170  SER170      0.1924
     78  C         52.8980   23.4230   24.0780 C.2   170  SER170      0.2314
     79  O         52.4040   22.3230   23.8280 O.2   170  SER170     -0.2863
     80  CB        55.3440   23.7560   23.7720 C.3   170  SER170      0.2116
     81  OG        56.6330   23.7660   24.3800 O.3   170  SER170     -0.2180
     82  N         63.5250   20.1610   21.9610 N.3   186  ILE186     -0.1231
     83  CA        62.9870   20.9070   23.0870 C.3   186  ILE186      0.1692
     84  C         62.9660   20.1130   24.3930 C.2   186  ILE186      0.2592
     85  O         62.6050   18.9330   24.4110 O.2   186  ILE186     -0.2718
     86  CB        61.5540   21.3710   22.7290 C.3   186  ILE186      0.0266
     87  CG1       60.9090   22.1320   23.8860 C.3   186  ILE186      0.0019
     88  CG2       60.7070   20.1610   22.3440 C.3   186  ILE186      0.0020
     89  CD1       59.6690   22.9010   23.4400 C.3   186  ILE186      0.0001
     90  N         63.3700   20.7570   25.4840 N.am  187  ASN187     -0.1960
     91  CA        63.3670   20.1010   26.7890 C.3   187  ASN187      0.1819
     92  C         63.1280   21.1190   27.8990 C.2   187  ASN187      0.2621
     93  O         62.7870   22.2780   27.6220 O.2   187  ASN187     -0.2715
     94  CB        64.6680   19.2990   27.0170 C.3   187  ASN187      0.1195
     95  CG        65.8610   20.1620   27.4140 C.2   187  ASN187      0.2630
     96  OD1       65.8020   21.3890   27.4140 O.2   187  ASN187     -0.2716
     97  ND2       66.9660   19.5010   27.7520 N.am  187  ASN187     -0.0877
     98  N         63.3040   20.7000   29.1480 N.am  188  MET188     -0.1963
     99  CA        63.0470   21.5880   30.2810 C.3   188  MET188      0.1736
    100  C         64.2230   21.7440   31.2420 C.2   188  MET188      0.2617
    101  O         64.0740   22.3870   32.2810 O.2   188  MET188     -0.2715
    102  CB        61.8400   21.0630   31.0810 C.3   188  MET188      0.0427
    103  CG        60.5590   20.8530   30.2770 C.3   188  MET188      0.0599
    104  SD        59.1900   20.1660   31.2750 S.3   188  MET188     -0.1393
    105  CE        57.9170   19.9390   30.0310 C.3   188  MET188      0.0692
    106  N         65.3900   21.1970   30.9030 N.am  189  THR189     -0.1951
    107  CA        66.5220   21.2510   31.8310 C.3   189  THR189      0.1897
    108  C         67.9070   21.6860   31.3480 C.2   189  THR189      0.2313
    109  O         68.8020   21.8720   32.1750 O.2   189  THR189     -0.2863
    110  CB        66.7180   19.8760   32.5030 C.3   189  THR189      0.1794
    111  OG1       67.0780   18.9120   31.5040 O.3   189  THR189     -0.2208
    112  CG2       65.4360   19.4240   33.1880 C.3   189  THR189      0.0378
    113  N         62.3970   11.7590   22.2070 N.3   211  THR211     -0.1203
    114  CA        61.4200   10.8000   22.7000 C.3   211  THR211      0.1994
    115  C         60.0380   11.0020   22.0960 C.2   211  THR211      0.2617
    116  O         59.1440   10.1760   22.2870 O.2   211  THR211     -0.2717
    117  CB        61.2960   10.8960   24.2410 C.3   211  THR211      0.1784
    118  OG1       61.0240   12.2550   24.6200 O.3   211  THR211     -0.2211
    119  CG2       62.5850   10.4400   24.9100 C.3   211  THR211      0.0376
    120  N         59.8760   12.0930   21.3550 N.am  212  ASP212     -0.1973
    121  CA        58.5930   12.4350   20.7550 C.3   212  ASP212      0.1709
    122  C         58.7800   13.5580   19.7360 C.2   212  ASP212      0.2293
    123  O         59.8850   14.0680   19.5610 O.2   212  ASP212     -0.2864
    124  CB        57.6460   12.8990   21.8670 C.3   212  ASP212      0.1436
    125  CG        58.2200   14.0670   22.6680 C.2   212  ASP212      0.3671
    126  OD1       58.0510   15.2320   22.2440 O.co2 212  ASP212     -0.2456
    127  OD2       58.8570   13.8200   23.7170 O.co2 212  ASP212     -0.2456
    128  N         56.9270   16.3520   19.9450 N.3   214  ASP214     -0.1239
    129  CA        56.2180   17.4530   20.5990 C.3   214  ASP214      0.1674
    130  C         54.7870   17.4650   20.0480 C.2   214  ASP214      0.2266
    131  O         54.0980   16.4480   20.1330 O.2   214  ASP214     -0.2867
    132  CB        56.9380   18.7840   20.3350 C.3   214  ASP214      0.1410
    133  CG        56.5370   19.8730   21.3190 C.2   214  ASP214      0.3668
    134  OD1       56.4180   19.5760   22.5250 O.co2 214  ASP214     -0.2456
    135  OD2       56.3570   21.0310   20.8940 O.co2 214  ASP214     -0.2456
    136  N         52.6650   14.5910   22.0750 N.3   218  VAL218     -0.1245
    137  CA        53.5190   14.2660   23.2180 C.3   218  VAL218      0.1561
    138  C         52.7160   14.1310   24.5130 C.2   218  VAL218      0.2260
    139  O         51.7460   14.8570   24.7390 O.2   218  VAL218     -0.2867
    140  CB        54.6240   15.3430   23.4380 C.3   218  VAL218      0.0252
    141  CG1       53.9940   16.6960   23.7470 C.3   218  VAL218      0.0019
    142  CG2       55.5390   14.9220   24.5800 C.3   218  VAL218      0.0019
    143  N         53.3280   12.3120   28.8310 N.3   220  VAL220     -0.1245
    144  CA        54.2620   11.6840   29.7520 C.3   220  VAL220      0.1561
    145  C         54.4590   10.2060   29.4270 C.2   220  VAL220      0.2260
    146  O         55.5910    9.7180   29.3950 O.2   220  VAL220     -0.2867
    147  CB        53.7840   11.8230   31.2150 C.3   220  VAL220      0.0252
    148  CG1       54.6260   10.9390   32.1250 C.3   220  VAL220      0.0019
    149  CG2       53.8910   13.2730   31.6590 C.3   220  VAL220      0.0019
    150  N         56.6800    9.6870   26.3910 N.3   223  VAL223     -0.1245
    151  CA        58.0840    9.9760   26.6850 C.3   223  VAL223      0.1561
    152  C         58.7240    8.8180   27.4520 C.2   223  VAL223      0.2260
    153  O         59.8060    8.3420   27.0930 O.2   223  VAL223     -0.2867
    154  CB        58.2310   11.2630   27.5260 C.3   223  VAL223      0.0252
    155  CG1       59.7060   11.5050   27.8550 C.3   223  VAL223      0.0019
    156  CG2       57.6620   12.4510   26.7630 C.3   223  VAL223      0.0019
@<TRIPOS>BOND
     1   123   122    2
     2   122   121    1
     3   128   129    1
     4   130   131    2
     5   130   129    1
     6   132   129    1
     7   132   133    1
     8    55    56    2
     9    55    54    1
    10   121   120    1
    11   121   124    1
    12   135   133   ar
    13   133   134   ar
    14   120   115   am
    15    54    53    1
    16   124   125    1
    17    82    83    1
    18   136   137    1
    19   115   116    2
    20   115   114    1
    21   113   114    1
    22   126   125   ar
    23    88    86    1
    24    52    51    1
    25   125   127   ar
    26   114   117    1
    27    86    83    1
    28    86    87    1
    29    50    49    2
    30    53    49   am
    31    83    84    1
    32   137   140    1
    33   137   138    1
    34    49    48    1
    35   140   141    1
    36   140   142    1
    37    89    87    1
    38    80    81    1
    39    80    77    1
    40    79    78    2
    41    51    48    1
    42    78    77    1
    43   117   118    1
    44   117   119    1
    45    84    85    2
    46    84    90   am
    47    48    47    1
    48   138   139    2
    49    77    76    1
    50    47    44   am
    51    90    91    1
    52    76    67   am
    53    63    61    1
    54    44    45    2
    55    44    43    1
    56   150   151    1
    57    38    37    2
    58   151   152    1
    59   151   154    1
    60   156   154    1
    61    91    94    1
    62    91    92    1
    63    67    68    2
    64    67    66    1
    65    69    70    1
    66    69    66    1
    67    43    46    1
    68    43    42    1
    69    94    95    1
    70   153   152    2
    71    71    70   ar
    72    71    73   ar
    73    41    39    1
    74    70    72   ar
    75    64    62    1
    76    95    96    2
    77    95    97   am
    78   154   155    1
    79    66    65    1
    80    37    42   am
    81    37    36    1
    82    93    92    2
    83    61    62    1
    84    61    58    1
    85    73    75   ar
    86    57    58    1
    87    92    98   am
    88    72    74   ar
    89    58    59    1
    90    75    74   ar
    91    39    40    1
    92    39    36    1
    93    35    36    1
    94   143   144    1
    95    98    99    1
    96   146   145    2
    97   145   144    1
    98   144   147    1
    99    59    60    2
   100   105   104    1
   101   103   102    1
   102   103   104    1
   103    99   102    1
   104    99   100    1
   105   106   100   am
   106   106   107    1
   107   147   149    1
   108   147   148    1
   109   100   101    2
   110   108   107    1
   111   108   109    2
   112   111   110    1
   113     4     3    2
   114   107   110    1
   115   110   112    1
   116     5     6    1
   117     5     7    1
   118     5     2    1
   119     3     2    1
   120     1     2    1
   121    33    32    1
   122    33    34    1
   123    32    29    1
   124    17    16   ar
   125    17    15   ar
   126    34    28    1
   127    16    14   ar
   128    26    24   ar
   129    26    27   ar
   130    15    13   ar
   131    29    30    1
   132    29    28    1
   133    24    23   ar
   134    27    25   ar
   135    30    31    2
   136    14    13   ar
   137    13    12    1
   138    25    23   ar
   139    23    22    1
   140    12     9    1
   141     8     9    1
   142    22    19    1
   143     9    10    1
   144    19    20    1
   145    19    18    1
   146    21    20    2
   147    10    11    2
