@<TRIPOS>MOLECULE
tmp/1sddB01.pdb
 96 91 0 0 0
SMALL
GASTEIGER

@<TRIPOS>ATOM
      1  N         41.0100   38.1700   35.1640 N.3   114  PRO114     -0.2102
      2  CA        40.5070   36.8940   35.6800 C.3   114  PRO114      0.1504
      3  C         39.4980   36.1250   34.8200 C.2   114  PRO114      0.2576
      4  O         39.8700   35.1710   34.1330 O.2   114  PRO114     -0.2718
      5  CB        39.9240   37.2770   37.0390 C.3   114  PRO114      0.0282
      6  CG        40.7030   38.4930   37.4120 C.3   114  PRO114      0.0208
      7  CD        40.7110   39.2470   36.1180 C.3   114  PRO114      0.0893
      8  N         38.2310   36.5370   34.8450 N.am  115  GLY115     -0.1943
      9  CA        37.2160   35.8020   34.1010 C.3   115  GLY115      0.2014
     10  C         36.5660   36.3430   32.8380 C.2   115  GLY115      0.2640
     11  O         36.8320   37.4650   32.3980 O.2   115  GLY115     -0.2714
     12  N         35.6850   35.5130   32.2800 N.am  116  SER116     -0.1935
     13  CA        34.9470   35.8030   31.0560 C.3   116  SER116      0.2055
     14  C         35.9300   36.2390   29.9860 C.2   116  SER116      0.2642
     15  O         36.4790   37.3360   30.0340 O.2   116  SER116     -0.2714
     16  CB        33.8880   36.8850   31.2920 C.3   116  SER116      0.2130
     17  OG        34.4760   38.1650   31.4400 O.3   116  SER116     -0.2179
     18  N         36.1490   35.3600   29.0170 N.am  117  ALA117     -0.1977
     19  CA        37.0860   35.6160   27.9350 C.3   117  ALA117      0.1597
     20  C         36.6990   36.7800   27.0360 C.2   117  ALA117      0.2287
     21  O         37.5440   37.3150   26.3130 O.2   117  ALA117     -0.2864
     22  CB        37.2510   34.3600   27.0990 C.3   117  ALA117      0.0319
     23  N         39.8430   38.5190   24.6530 N.3   145  ARG145     -0.1245
     24  CA        41.2820   38.5770   24.8520 C.3   145  ARG145      0.1563
     25  C         41.9260   37.6130   23.8800 C.2   145  ARG145      0.2260
     26  O         41.3670   36.5570   23.6060 O.2   145  ARG145     -0.2867
     27  CB        41.6630   38.1990   26.2820 C.3   145  ARG145      0.0307
     28  CG        41.3920   36.7620   26.6680 C.3   145  ARG145      0.0489
     29  CD        42.1280   36.4190   27.9700 C.3   145  ARG145      0.2205
     30  NE        41.2710   35.7940   28.9790 N.pl3 145  ARG145     -0.0865
     31  CZ        40.7140   36.4350   30.0050 C.cat 145  ARG145      0.5346
     32  NH1       40.9180   37.7390   30.1810 N.pl3 145  ARG145      0.1354
     33  NH2       39.9490   35.7630   30.8590 N.pl3 145  ARG145      0.1354
     34  N         36.0410   27.9920   23.2280 N.3   157  VAL157     -0.1231
     35  CA        36.0460   27.5470   24.6190 C.3   157  VAL157      0.1692
     36  C         34.6640   27.5920   25.2760 C.2   157  VAL157      0.2592
     37  O         33.7960   26.7820   24.9480 O.2   157  VAL157     -0.2718
     38  CB        37.0480   28.3840   25.4650 C.3   157  VAL157      0.0266
     39  CG1       37.1830   27.7830   26.8720 C.3   157  VAL157      0.0020
     40  CG2       38.4140   28.4230   24.7670 C.3   157  VAL157      0.0020
     41  N         34.4620   28.5230   26.2080 N.am  158  ASP158     -0.1974
     42  CA        33.1640   28.6350   26.8840 C.3   158  ASP158      0.1709
     43  C         32.1070   28.4200   25.8190 C.2   158  ASP158      0.2293
     44  O         31.0940   27.7740   26.0530 O.2   158  ASP158     -0.2864
     45  CB        32.9720   30.0160   27.5250 C.3   158  ASP158      0.1436
     46  CG        31.5620   30.2240   28.0390 C.2   158  ASP158      0.3671
     47  OD1       31.2320   29.7590   29.1450 O.co2 158  ASP158     -0.2456
     48  OD2       30.7680   30.8490   27.3190 O.co2 158  ASP158     -0.2456
     49  N         27.9410   25.3710   29.9820 N.3   203  TRP203     -0.1241
     50  CA        28.2330   26.7720   30.2720 C.3   203  TRP203      0.1605
     51  C         28.0440   27.6660   29.0650 C.2   203  TRP203      0.2264
     52  O         28.7300   27.5010   28.0670 O.2   203  TRP203     -0.2867
     53  CB        29.6730   26.9350   30.7590 C.3   203  TRP203      0.0550
     54  CG        29.8350   26.5690   32.1690 C.ar  203  TRP203      0.0003
     55  CD1       30.2230   25.3610   32.6640 C.ar  203  TRP203      0.0946
     56  CD2       29.4810   27.3730   33.2940 C.ar  203  TRP203      0.0152
     57  NE1       30.1210   25.3560   34.0380 N.ar  203  TRP203     -0.2442
     58  CE2       29.6660   26.5830   34.4500 C.ar  203  TRP203      0.0810
     59  CE3       29.0150   28.6870   33.4400 C.ar  203  TRP203      0.0012
     60  CZ2       29.4010   27.0650   35.7380 C.ar  203  TRP203      0.0191
     61  CZ3       28.7510   29.1640   34.7150 C.ar  203  TRP203      0.0001
     62  CH2       28.9440   28.3530   35.8490 C.ar  203  TRP203      0.0015
     63  N         26.1560   33.6870   36.9030 N.3   228  LEU228     -0.1245
     64  CA        27.4560   33.7820   37.5670 C.3   228  LEU228      0.1561
     65  C         28.2510   35.0060   37.1320 C.2   228  LEU228      0.2260
     66  O         28.3560   35.2790   35.9480 O.2   228  LEU228     -0.2867
     67  CB        28.3040   32.5420   37.2690 C.3   228  LEU228      0.0270
     68  CG        29.7490   32.6190   37.7830 C.3   228  LEU228      0.0019
     69  CD1       29.7360   32.6110   39.2970 C.3   228  LEU228      0.0001
     70  CD2       30.5620   31.4560   37.2690 C.3   228  LEU228      0.0001
     71  N         31.7170   36.3720   36.6260 N.3   230  ASN230     -0.1240
     72  CA        33.1150   35.9580   36.5020 C.3   230  ASN230      0.1653
     73  C         34.0200   37.1790   36.2930 C.2   230  ASN230      0.2266
     74  O         33.8320   37.9620   35.3570 O.2   230  ASN230     -0.2867
     75  CB        33.2690   34.9930   35.3150 C.3   230  ASN230      0.1155
     76  CG        34.4960   34.0840   35.4330 C.2   230  ASN230      0.2627
     77  OD1       35.4810   34.4290   36.0920 O.2   230  ASN230     -0.2716
     78  ND2       34.4220   32.9260   34.7730 N.am  230  ASN230     -0.0877
     79  N         34.0340   36.4720   41.9900 N.3   234  GLN234     -0.1245
     80  CA        32.9640   35.6120   41.5230 C.3   234  GLN234      0.1566
     81  C         31.7700   35.6690   42.4670 C.2   234  GLN234      0.2260
     82  O         31.9060   35.4750   43.6760 O.2   234  GLN234     -0.2867
     83  CB        33.4710   34.1800   41.3890 C.3   234  GLN234      0.0367
     84  CG        34.6180   34.0400   40.4090 C.3   234  GLN234      0.0905
     85  CD        34.9820   32.5960   40.1540 C.2   234  GLN234      0.2608
     86  OE1       35.8350   32.2950   39.3190 O.2   234  GLN234     -0.2717
     87  NE2       34.3350   31.6880   40.8770 N.am  234  GLN234     -0.0878
     88  N         28.4420   34.4160   32.7490 N.3   251  GLU251     -0.1245
     89  CA        28.1370   33.0670   32.3140 C.3   251  GLU251      0.1567
     90  C         26.9350   32.4710   33.0720 C.2   251  GLU251      0.2260
     91  O         26.3370   33.1120   33.9360 O.2   251  GLU251     -0.2867
     92  CB        29.3650   32.1630   32.4770 C.3   251  GLU251      0.0388
     93  CG        30.5200   32.7600   33.2670 C.3   251  GLU251      0.1160
     94  CD        31.6070   33.3810   32.3900 C.2   251  GLU251      0.3649
     95  OE1       31.4080   34.5070   31.8790 O.co2 251  GLU251     -0.2457
     96  OE2       32.6660   32.7340   32.2170 O.co2 251  GLU251     -0.2457
@<TRIPOS>BOND
     1    34    35    1
     2    26    25    2
     3    25    24    1
     4    35    36    1
     5    35    38    1
     6    23    24    1
     7    40    38    1
     8    24    27    1
     9    37    36    2
    10    36    41   am
    11    38    39    1
    12    43    44    2
    13    43    42    1
    14    41    42    1
    15    27    28    1
    16    21    20    2
    17    28    29    1
    18    42    45    1
    19    20    19    1
    20    22    19    1
    21    48    46   ar
    22    45    46    1
    23    19    18    1
    24    29    30    1
    25    46    47   ar
    26    52    51    2
    27    30    31    2
    28    18    14   am
    29    51    50    1
    30    49    50    1
    31    14    15    2
    32    14    13    1
    33    31    32    1
    34    31    33    1
    35    50    53    1
    36    53    54    1
    37    13    16    1
    38    13    12    1
    39    16    17    1
    40    95    94   ar
    41    54    55   ar
    42    54    56   ar
    43    96    94   ar
    44    12    10   am
    45    89    92    1
    46    89    88    1
    47    89    90    1
    48    94    93    1
    49    11    10    2
    50    92    93    1
    51    55    57   ar
    52    10     9    1
    53    90    91    2
    54    56    59   ar
    55    56    58   ar
    56    59    61   ar
    57    57    58   ar
    58     9     8    1
    59     4     3    2
    60    58    60   ar
    61    61    62   ar
    62    78    76   am
    63     3     8   am
    64     3     2    1
    65     1     2    1
    66     1     7    1
    67    75    76    1
    68    75    72    1
    69    74    73    2
    70    76    77    2
    71     2     5    1
    72    60    62   ar
    73    66    65    2
    74     7     6    1
    75    73    72    1
    76    72    71    1
    77    63    64    1
    78     5     6    1
    79    65    64    1
    80    70    68    1
    81    67    64    1
    82    67    68    1
    83    68    69    1
    84    86    85    2
    85    85    84    1
    86    85    87   am
    87    84    83    1
    88    83    80    1
    89    80    79    1
    90    80    81    1
    91    81    82    2
