@<TRIPOS>MOLECULE
tmp/1sddB02.pdb
 81 74 0 0 0
SMALL
GASTEIGER

@<TRIPOS>ATOM
      1  N         38.3990   32.0400   16.7880 N.3   150  ASP150     -0.1239
      2  CA        38.9710   31.0790   15.8610 C.3   150  ASP150      0.1674
      3  C         39.1270   31.6610   14.4600 C.2   150  ASP150      0.2266
      4  O         38.4730   32.6440   14.1270 O.2   150  ASP150     -0.2867
      5  CB        38.0690   29.8440   15.8300 C.3   150  ASP150      0.1410
      6  CG        38.4540   28.8690   14.7540 C.2   150  ASP150      0.3668
      7  OD1       38.0670   29.0830   13.5860 O.co2 150  ASP150     -0.2456
      8  OD2       39.1500   27.8910   15.0880 O.co2 150  ASP150     -0.2456
      9  N         37.9070   31.8050   11.8360 N.3   152  GLU152     -0.1245
     10  CA        36.7100   32.4970   11.3410 C.3   152  GLU152      0.1567
     11  C         35.8710   33.0900   12.5050 C.2   152  GLU152      0.2260
     12  O         34.6790   32.7950   12.6550 O.2   152  GLU152     -0.2867
     13  CB        35.8680   31.5320   10.4940 C.3   152  GLU152      0.0388
     14  CG        35.7780   30.1140   11.0460 C.3   152  GLU152      0.1160
     15  CD        35.2280   30.0530   12.4610 C.2   152  GLU152      0.3649
     16  OE1       35.9660   30.3860   13.4120 O.co2 152  GLU152     -0.2457
     17  OE2       34.0510   29.6790   12.6200 O.co2 152  GLU152     -0.2457
     18  N         34.8220   33.2290   16.1070 N.3   154  ASN154     -0.1225
     19  CA        33.7090   32.6960   16.9120 C.3   154  ASN154      0.1785
     20  C         34.3750   32.1780   18.1940 C.2   154  ASN154      0.2597
     21  O         35.5610   31.8690   18.1800 O.2   154  ASN154     -0.2718
     22  CB        33.0160   31.5310   16.1810 C.3   154  ASN154      0.1169
     23  CG        31.5890   31.8670   15.7070 C.2   154  ASN154      0.2627
     24  OD1       31.3480   32.9030   15.0840 O.2   154  ASN154     -0.2716
     25  ND2       30.6460   30.9700   15.9850 N.am  154  ASN154     -0.0877
     26  N         33.6470   32.0970   19.2990 N.am  155  MET155     -0.1966
     27  CA        34.2440   31.5870   20.5350 C.3   155  MET155      0.1721
     28  C         34.2330   30.0430   20.5340 C.2   155  MET155      0.2458
     29  O         33.2050   29.4190   20.2550 O.2   155  MET155     -0.2730
     30  CB        33.4620   32.1010   21.7590 C.3   155  MET155      0.0427
     31  CG        34.2380   32.1100   23.1230 C.3   155  MET155      0.0599
     32  SD        34.6950   30.5550   24.0420 S.3   155  MET155     -0.1393
     33  CE        35.5740   31.2660   25.5230 C.3   155  MET155      0.0692
     34  N         35.3780   29.4090   20.8470 N.am  156  PRO156     -0.2727
     35  CA        35.4600   27.9460   20.8740 C.3   156  PRO156      0.1402
     36  C         35.3360   27.3720   22.2840 C.2   156  PRO156      0.2269
     37  O         34.6250   26.3900   22.5070 O.2   156  PRO156     -0.2865
     38  CB        36.8370   27.6810   20.2850 C.3   156  PRO156      0.0296
     39  CG        37.6420   28.7470   20.9400 C.3   156  PRO156      0.0237
     40  CD        36.7330   29.9890   20.8370 C.3   156  PRO156      0.0939
     41  N         32.3870   28.9590   24.6400 N.3   159  MET159     -0.1245
     42  CA        31.5130   28.8400   23.4950 C.3   159  MET159      0.1570
     43  C         30.0760   29.0600   23.9010 C.2   159  MET159      0.2261
     44  O         29.7490   29.1360   25.0660 O.2   159  MET159     -0.2867
     45  CB        31.6750   27.4470   22.8570 C.3   159  MET159      0.0387
     46  CG        30.8270   27.2040   21.5910 C.3   159  MET159      0.0595
     47  SD        30.6700   25.4440   21.1460 S.3   159  MET159     -0.1393
     48  CE        29.5850   24.8380   22.4640 C.3   159  MET159      0.0692
     49  N         28.9630   27.0920   12.0730 N.3   388  ASN388     -0.1240
     50  CA        30.3370   27.4970   11.8950 C.3   388  ASN388      0.1653
     51  C         30.4850   28.0920   10.4950 C.2   388  ASN388      0.2266
     52  O         30.9030   29.2410   10.3260 O.2   388  ASN388     -0.2867
     53  CB        31.2350   26.2740   11.9550 C.3   388  ASN388      0.1155
     54  CG        31.7640   26.0300   13.3080 C.2   388  ASN388      0.2627
     55  OD1       32.6380   26.7510   13.7510 O.2   388  ASN388     -0.2716
     56  ND2       31.2230   25.0310   13.9860 N.am  388  ASN388     -0.0877
     57  N         26.3010   25.6550    5.4300 N.3   394  MET394     -0.1245
     58  CA        27.2330   24.6430    5.8800 C.3   394  MET394      0.1570
     59  C         27.4250   23.5780    4.8000 C.2   394  MET394      0.2261
     60  O         26.4590   23.0170    4.2730 O.2   394  MET394     -0.2867
     61  CB        26.7020   23.9920    7.1530 C.3   394  MET394      0.0387
     62  CG        27.5190   22.8370    7.6450 C.3   394  MET394      0.0595
     63  SD        29.1670   23.3420    8.0150 S.3   394  MET394     -0.1393
     64  CE        29.0650   23.7140    9.7600 C.3   394  MET394      0.0692
     65  N         28.3440   16.7900   13.3000 N.3   409  GLN409     -0.1245
     66  CA        27.5440   17.4640   14.3080 C.3   409  GLN409      0.1566
     67  C         26.7300   18.6160   13.7200 C.2   409  GLN409      0.2260
     68  O         27.0240   19.1100   12.6430 O.2   409  GLN409     -0.2867
     69  CB        28.4820   18.0030   15.3860 C.3   409  GLN409      0.0367
     70  CG        27.8110   18.7260   16.5260 C.3   409  GLN409      0.0905
     71  CD        28.7310   18.8580   17.7160 C.2   409  GLN409      0.2608
     72  OE1       29.8030   19.4660   17.6270 O.2   409  GLN409     -0.2717
     73  NE2       28.3260   18.2820   18.8380 N.am  409  GLN409     -0.0878
     74  N         25.9920   22.3190   14.6140 N.3   411  ASP411     -0.1239
     75  CA        26.5090   23.3550   15.5630 C.3   411  ASP411      0.1674
     76  C         25.5220   23.6070   16.6790 C.2   411  ASP411      0.2266
     77  O         25.8370   23.3250   17.8560 O.2   411  ASP411     -0.2867
     78  CB        26.9370   24.6890   14.8600 C.3   411  ASP411      0.1410
     79  CG        27.6380   25.7260   15.8440 C.2   411  ASP411      0.3668
     80  OD1       27.0460   26.7920   16.2090 O.co2 411  ASP411     -0.2456
     81  OD2       28.8040   25.4780   16.2440 O.co2 411  ASP411     -0.2456
@<TRIPOS>BOND
     1    60    59    2
     2    59    58    1
     3    57    58    1
     4    58    61    1
     5    61    62    1
     6    62    63    1
     7    63    64    1
     8    52    51    2
     9    13    14    1
    10    13    10    1
    11    51    50    1
    12    14    15    1
    13    10     9    1
    14    10    11    1
    15    50    53    1
    16    50    49    1
    17    53    54    1
    18    15    17   ar
    19    15    16   ar
    20    11    12    2
    21    68    67    2
    22    65    66    1
    23    54    55    2
    24    54    56   am
    25     7     6   ar
    26    67    66    1
    27     4     3    2
    28    66    69    1
    29     3     2    1
    30    74    75    1
    31     6     8   ar
    32     6     5    1
    33    78    75    1
    34    78    79    1
    35    24    23    2
    36    69    70    1
    37    75    76    1
    38    23    25   am
    39    23    22    1
    40     5     2    1
    41    79    80   ar
    42    79    81   ar
    43     2     1    1
    44    18    19    1
    45    22    19    1
    46    70    71    1
    47    76    77    2
    48    19    20    1
    49    72    71    2
    50    71    73   am
    51    21    20    2
    52    20    26   am
    53    26    27    1
    54    29    28    2
    55    38    35    1
    56    38    39    1
    57    28    27    1
    58    28    34   am
    59    27    30    1
    60    40    34    1
    61    40    39    1
    62    34    35    1
    63    35    36    1
    64    47    46    1
    65    47    48    1
    66    46    45    1
    67    30    31    1
    68    36    37    2
    69    45    42    1
    70    31    32    1
    71    42    43    1
    72    42    41    1
    73    43    44    2
    74    32    33    1
