@<TRIPOS>MOLECULE
tmp/1sdeA00.pdb
 110 104 0 0 0
SMALL
GASTEIGER

@<TRIPOS>ATOM
      1  N         15.8800   -8.9560   32.0250 N.3    59  GLY59      -0.1210
      2  CA        15.8500   -9.8040   33.1840 C.3    59  GLY59       0.1956
      3  C         14.7690   -9.4080   34.1820 C.2    59  GLY59       0.2612
      4  O         13.6210   -9.1380   33.7740 O.2    59  GLY59      -0.2717
      5  N         15.0980   -9.3670   35.4660 N.am   60  SER60      -0.1952
      6  CA        14.1070   -9.1650   36.5230 C.3    60  SER60       0.1924
      7  C         13.4830   -7.8070   36.5280 C.2    60  SER60       0.2314
      8  O         12.5100   -7.6360   37.2630 O.2    60  SER60      -0.2863
      9  CB        14.7540   -9.4340   37.8850 C.3    60  SER60       0.2116
     10  OG        14.9960  -10.8490   37.9540 O.3    60  SER60      -0.2180
     11  N         13.7390  -20.0040   46.4470 N.3   112  ASP112     -0.1239
     12  CA        14.0930  -19.5830   45.1390 C.3   112  ASP112      0.1674
     13  C         14.7130  -20.7290   44.3530 C.2   112  ASP112      0.2266
     14  O         15.8840  -21.0880   44.5540 O.2   112  ASP112     -0.2867
     15  CB        15.0880  -18.4390   45.2260 C.3   112  ASP112      0.1410
     16  CG        15.2680  -17.7950   43.8710 C.2   112  ASP112      0.3668
     17  OD1       14.8650  -18.3460   42.8230 O.co2 112  ASP112     -0.2456
     18  OD2       15.8940  -16.7110   43.8720 O.co2 112  ASP112     -0.2456
     19  N         15.8700  -20.8680   41.5220 N.3   114  THR114     -0.1218
     20  CA        17.0430  -20.5690   40.7110 C.3   114  THR114      0.1862
     21  C         18.3360  -20.8980   41.4700 C.2   114  THR114      0.2287
     22  O         19.3500  -21.0810   40.8010 O.2   114  THR114     -0.2866
     23  CB        17.0890  -19.1680   40.1320 C.3   114  THR114      0.1770
     24  OG1       17.2280  -18.2830   41.2460 O.3   114  THR114     -0.2211
     25  CG2       15.8150  -18.8320   39.3500 C.3   114  THR114      0.0375
     26  N         14.4350  -12.4270   48.4840 N.3   157  TYR157     -0.1241
     27  CA        14.1420  -12.3510   47.0530 C.3   157  TYR157      0.1605
     28  C         14.0330  -13.7400   46.4420 C.2   157  TYR157      0.2264
     29  O         14.8620  -14.5940   46.6470 O.2   157  TYR157     -0.2867
     30  CB        15.1610  -11.5580   46.3390 C.3   157  TYR157      0.0534
     31  CG        14.9760  -11.2190   44.9050 C.ar  157  TYR157     -0.0201
     32  CD1       14.3200  -10.0010   44.5940 C.ar  157  TYR157     -0.0009
     33  CD2       15.3900  -12.0450   43.8870 C.ar  157  TYR157     -0.0009
     34  CE1       14.1090   -9.6540   43.2680 C.ar  157  TYR157      0.0417
     35  CE2       15.2180  -11.6590   42.5470 C.ar  157  TYR157      0.0417
     36  CZ        14.5720  -10.4790   42.2600 C.ar  157  TYR157      0.1957
     37  OH        14.4380  -10.0560   40.9490 O.3   157  TYR157     -0.2866
     38  N         12.6450  -15.6980   42.6780 N.3   159  ASN159     -0.1240
     39  CA        12.0030  -15.7590   41.3910 C.3   159  ASN159      0.1653
     40  C         10.6350  -16.4210   41.4890 C.2   159  ASN159      0.2266
     41  O          9.7200  -16.0590   40.7470 O.2   159  ASN159     -0.2867
     42  CB        12.8250  -16.5210   40.3320 C.3   159  ASN159      0.1155
     43  CG        13.2410  -15.5290   39.2570 C.2   159  ASN159      0.2627
     44  OD1       13.4320  -14.3470   39.5600 O.2   159  ASN159     -0.2716
     45  ND2       13.4060  -15.9940   38.0340 N.am  159  ASN159     -0.0877
     46  N         12.7950  -20.4360   32.2010 N.3   231  TRP231     -0.1241
     47  CA        13.0330  -20.6060   33.6240 C.3   231  TRP231      0.1605
     48  C         12.5540  -19.4050   34.4200 C.2   231  TRP231      0.2264
     49  O         12.4560  -19.5370   35.6270 O.2   231  TRP231     -0.2867
     50  CB        14.4910  -20.9220   33.9230 C.3   231  TRP231      0.0550
     51  CG        15.3830  -19.8240   33.5070 C.ar  231  TRP231      0.0003
     52  CD1       15.9680  -19.7770   32.2630 C.ar  231  TRP231      0.0946
     53  CD2       15.7820  -18.7200   34.2730 C.ar  231  TRP231      0.0152
     54  NE1       16.7260  -18.6140   32.2470 N.ar  231  TRP231     -0.2442
     55  CE2       16.6630  -17.9420   33.4260 C.ar  231  TRP231      0.0810
     56  CE3       15.5180  -18.2660   35.5810 C.ar  231  TRP231      0.0012
     57  CZ2       17.2290  -16.7690   33.8870 C.ar  231  TRP231      0.0191
     58  CZ3       16.0930  -17.0790   36.0480 C.ar  231  TRP231      0.0001
     59  CH2       16.9510  -16.3640   35.1750 C.ar  231  TRP231      0.0015
     60  N          8.8770  -13.5530   35.6590 N.3   235  ALA235     -0.1231
     61  CA         9.9120  -13.0760   36.5730 C.3   235  ALA235      0.1697
     62  C         11.1120  -12.4740   35.8420 C.2   235  ALA235      0.2628
     63  O         11.9660  -11.8520   36.4530 O.2   235  ALA235     -0.2714
     64  CB        10.4130  -14.1550   37.4870 C.3   235  ALA235      0.0304
     65  N         11.2290  -12.6610   34.5200 N.am  236  GLY236     -0.1787
     66  CA        12.4680  -12.2880   33.8390 C.2   236  GLY236      0.0979
     67  C         12.5700  -12.2230   32.3360 C.3   236  GLY236      0.2260
     68  O         13.7010  -11.9550   31.9100 O.3   236  GLY236     -0.2137
     69  N         11.8940   -1.6590   43.2170 N.3   283  ARG283     -0.1245
     70  CA        13.0280   -1.4170   44.0960 C.3   283  ARG283      0.1563
     71  C         13.1830    0.0860   44.3900 C.2   283  ARG283      0.2260
     72  O         12.9010    0.9140   43.5210 O.2   283  ARG283     -0.2867
     73  CB        14.3310   -1.8940   43.4690 C.3   283  ARG283      0.0307
     74  CG        14.4030   -3.3830   43.1850 C.3   283  ARG283      0.0489
     75  CD        15.8410   -3.7590   42.8310 C.3   283  ARG283      0.2205
     76  NE        16.0950   -5.1790   42.5790 N.pl3 283  ARG283     -0.0865
     77  CZ        16.2370   -6.0790   43.5450 C.cat 283  ARG283      0.5346
     78  NH1       16.0990   -5.7690   44.8380 N.pl3 283  ARG283      0.1354
     79  NH2       16.4920   -7.3350   43.1860 N.pl3 283  ARG283      0.1354
     80  N         14.0560   -1.0850   38.8950 N.3   296  HIS296     -0.1226
     81  CA        14.4230   -2.4740   39.1310 C.3   296  HIS296      0.1752
     82  C         15.7300   -2.7460   38.4100 C.2   296  HIS296      0.2596
     83  O         16.1190   -2.0690   37.4640 O.2   296  HIS296     -0.2718
     84  CB        13.3120   -3.4210   38.6590 C.3   296  HIS296      0.0759
     85  CG        13.1590   -4.6570   39.4670 C.ar  296  HIS296      0.0818
     86  ND1       14.0380   -5.7510   39.4290 N.ar  296  HIS296     -0.2268
     87  CD2       12.1840   -4.9800   40.3510 C.ar  296  HIS296      0.1154
     88  CE1       13.5500   -6.6630   40.2950 C.ar  296  HIS296      0.1986
     89  NE2       12.4360   -6.2280   40.8580 N.ar  296  HIS296     -0.2212
     90  N         16.3920   -3.7990   38.8440 N.am  297  THR297     -0.1953
     91  CA        17.5750   -4.3930   38.2600 C.3   297  THR297      0.1897
     92  C         17.2400   -5.6700   37.5120 C.2   297  THR297      0.2313
     93  O         16.1860   -6.2940   37.7260 O.2   297  THR297     -0.2863
     94  CB        18.5990   -4.7100   39.3670 C.3   297  THR297      0.1794
     95  OG1       17.9230   -5.4570   40.3900 O.3   297  THR297     -0.2208
     96  CG2       19.1930   -3.4210   39.9720 C.3   297  THR297      0.0378
     97  N         19.4770   -9.3740   35.8830 N.3   299  THR299     -0.1203
     98  CA        20.7230  -10.1130   35.7610 C.3   299  THR299      0.1994
     99  C         20.6460  -11.3860   34.9250 C.2   299  THR299      0.2617
    100  O         21.4560  -12.3460   35.1100 O.2   299  THR299     -0.2717
    101  CB        21.2860  -10.4960   37.1220 C.3   299  THR299      0.1784
    102  OG1       20.3720  -11.4170   37.7550 O.3   299  THR299     -0.2211
    103  CG2       21.4550   -9.3240   38.0230 C.3   299  THR299      0.0376
    104  N         19.7710  -11.4820   34.0010 N.am  300  VAL300     -0.1979
    105  CA        19.5700  -12.6520   33.1520 C.3   300  VAL300      0.1595
    106  C         20.8600  -12.8940   32.4130 C.2   300  VAL300      0.2287
    107  O         21.6710  -12.0020   32.2140 O.2   300  VAL300     -0.2864
    108  CB        18.3160  -12.4580   32.2680 C.3   300  VAL300      0.0276
    109  CG1       18.5630  -11.3270   31.2980 C.3   300  VAL300      0.0022
    110  CG2       17.9530  -13.7340   31.5100 C.3   300  VAL300      0.0022
@<TRIPOS>BOND
     1   109   108    1
     2   110   108    1
     3    68    67    1
     4     1     2    1
     5    46    47    1
     6   107   106    2
     7    54    52   ar
     8    54    55   ar
     9    52    51   ar
    10   108   105    1
    11    67    66    1
    12   106   105    1
    13   105   104    1
    14     2     3    1
    15    55    57   ar
    16    55    53   ar
    17    51    50    1
    18    51    53   ar
    19    47    50    1
    20    47    48    1
    21     4     3    2
    22    66    65    2
    23    57    59   ar
    24   104    99   am
    25     3     5   am
    26    53    56   ar
    27    48    49    2
    28    65    62    1
    29    99   100    2
    30    99    98    1
    31    59    58   ar
    32     5     6    1
    33    56    58   ar
    34    60    61    1
    35    98    97    1
    36    98   101    1
    37    62    63    2
    38    62    61    1
    39     6     7    1
    40     6     9    1
    41     7     8    2
    42    61    64    1
    43   101   102    1
    44   101   103    1
    45    83    82    2
    46    92    93    2
    47    92    91    1
    48     9    10    1
    49    45    43   am
    50    91    90    1
    51    91    94    1
    52    82    90   am
    53    82    81    1
    54    84    81    1
    55    84    85    1
    56    80    81    1
    57    43    44    2
    58    43    42    1
    59    25    23    1
    60    94    96    1
    61    94    95    1
    62    86    85   ar
    63    86    88   ar
    64    85    87   ar
    65    23    20    1
    66    23    24    1
    67    88    89   ar
    68    42    39    1
    69    87    89   ar
    70    20    21    1
    71    20    19    1
    72    41    40    2
    73    22    21    2
    74    37    36    1
    75    39    40    1
    76    39    38    1
    77    36    35   ar
    78    36    34   ar
    79    35    33   ar
    80    76    75    1
    81    76    77    2
    82    17    16   ar
    83    75    74    1
    84    74    73    1
    85    79    77    1
    86    69    70    1
    87    34    32   ar
    88    73    70    1
    89    72    71    2
    90    77    78    1
    91    16    18   ar
    92    16    15    1
    93    33    31   ar
    94    70    71    1
    95    13    14    2
    96    13    12    1
    97    32    31   ar
    98    31    30    1
    99    12    15    1
   100    12    11    1
   101    30    27    1
   102    28    29    2
   103    28    27    1
   104    27    26    1
