@<TRIPOS>MOLECULE
tmp/1sdwA00.pdb
 117 110 0 0 0
SMALL
GASTEIGER

@<TRIPOS>ATOM
      1  N         27.6250   40.7910   62.8090 N.3    11  THR11      -0.1218
      2  CA        26.2090   41.0670   63.0640 C.3    11  THR11       0.1862
      3  C         25.6400   39.9720   63.9550 C.2    11  THR11       0.2287
      4  O         25.5270   38.8130   63.5440 O.2    11  THR11      -0.2866
      5  CB        25.3780   41.0630   61.7830 C.3    11  THR11       0.1770
      6  OG1       25.9450   41.9640   60.8250 O.3    11  THR11      -0.2211
      7  CG2       23.9420   41.4690   62.1000 C.3    11  THR11       0.0375
      8  N         23.0470   37.5730   65.5350 N.3    13  LEU13      -0.1231
      9  CA        21.7870   37.0810   64.9670 C.3    13  LEU13       0.1693
     10  C         20.8570   36.4980   66.0310 C.2    13  LEU13       0.2592
     11  O         19.6300   36.6110   65.9390 O.2    13  LEU13      -0.2718
     12  CB        22.0610   36.0280   63.8940 C.3    13  LEU13       0.0284
     13  CG        22.7260   36.5380   62.6130 C.3    13  LEU13       0.0019
     14  CD1       22.9040   35.3780   61.6450 C.3    13  LEU13       0.0001
     15  CD2       21.8780   37.6280   61.9780 C.3    13  LEU13       0.0001
     16  N         21.4500   35.8680   67.0360 N.am   14  ASP14      -0.1974
     17  CA        20.6970   35.2830   68.1320 C.3    14  ASP14       0.1709
     18  C         21.7450   34.7180   69.0840 C.2    14  ASP14       0.2293
     19  O         22.9420   34.8700   68.8470 O.2    14  ASP14      -0.2864
     20  CB        19.7880   34.1710   67.6230 C.3    14  ASP14       0.1436
     21  CG        20.4970   32.8480   67.5470 C.2    14  ASP14       0.3671
     22  OD1       20.6160   32.1770   68.5960 O.co2  14  ASP14      -0.2456
     23  OD2       20.9550   32.4910   66.4440 O.co2  14  ASP14      -0.2456
     24  N         24.2530   32.5290   66.9320 N.3    17  ASP17      -0.1239
     25  CA        24.5180   32.7810   65.5140 C.3    17  ASP17       0.1674
     26  C         24.9230   34.2160   65.2370 C.2    17  ASP17       0.2266
     27  O         24.4520   35.1470   65.8970 O.2    17  ASP17      -0.2867
     28  CB        23.2740   32.4850   64.6740 C.3    17  ASP17       0.1410
     29  CG        22.9900   31.0000   64.5400 C.2    17  ASP17       0.3668
     30  OD1       23.3020   30.2350   65.4840 O.co2  17  ASP17      -0.2456
     31  OD2       22.4360   30.6050   63.4870 O.co2  17  ASP17      -0.2456
     32  N         26.5610   36.8220   61.7510 N.3    19  ALA19      -0.1245
     33  CA        27.0120   36.8990   60.3800 C.3    19  ALA19       0.1562
     34  C         28.3110   37.6740   60.3960 C.2    19  ALA19       0.2260
     35  O         28.4700   38.6450   61.1550 O.2    19  ALA19      -0.2867
     36  CB        25.9860   37.6150   59.5170 C.3    19  ALA19       0.0290
     37  N         30.8810   39.6960   57.8490 N.3    21  ASP21      -0.1239
     38  CA        31.1410   40.2650   56.5350 C.3    21  ASP21       0.1674
     39  C         32.6360   40.2980   56.2600 C.2    21  ASP21       0.2266
     40  O         33.4160   40.8720   57.0250 O.2    21  ASP21      -0.2867
     41  CB        30.5490   41.6700   56.4450 C.3    21  ASP21       0.1410
     42  CG        29.0800   41.6500   56.0240 C.2    21  ASP21       0.3668
     43  OD1       28.7570   42.2670   54.9800 O.co2  21  ASP21      -0.2456
     44  OD2       28.2490   41.0120   56.7200 O.co2  21  ASP21      -0.2456
     45  N         25.9010   29.2750   55.7010 N.3    52  ASP52      -0.1225
     46  CA        25.3580   30.0250   54.5730 C.3    52  ASP52       0.1805
     47  C         26.3690   31.0580   54.1440 C.2    52  ASP52       0.2598
     48  O         27.2580   31.4150   54.9210 O.2    52  ASP52      -0.2718
     49  CB        24.0340   30.6980   54.9650 C.3    52  ASP52       0.1424
     50  CG        23.1510   31.0040   53.7510 C.2    52  ASP52       0.3668
     51  OD1       23.5040   30.6230   52.5990 O.co2  52  ASP52      -0.2456
     52  OD2       22.0910   31.6230   53.9570 O.co2  52  ASP52      -0.2456
     53  N         26.2460   31.5180   52.9040 N.am   53  PHE53      -0.1962
     54  CA        27.1470   32.5100   52.3260 C.3    53  PHE53       0.1771
     55  C         26.2960   33.4750   51.4930 C.2    53  PHE53       0.2619
     56  O         25.4020   33.0200   50.7660 O.2    53  PHE53      -0.2715
     57  CB        28.1400   31.8540   51.3390 C.3    53  PHE53       0.0574
     58  CG        29.0210   30.7710   51.9330 C.ar   53  PHE53      -0.0200
     59  CD1       28.6140   29.4470   51.9270 C.ar   53  PHE53      -0.0042
     60  CD2       30.2730   31.0810   52.4690 C.ar   53  PHE53      -0.0042
     61  CE1       29.4260   28.4300   52.4420 C.ar   53  PHE53      -0.0003
     62  CE2       31.1010   30.0690   52.9910 C.ar   53  PHE53      -0.0003
     63  CZ        30.6710   28.7350   52.9760 C.ar   53  PHE53      -0.0000
     64  N         26.5750   34.7770   51.5710 N.am   54  LYS54      -0.1977
     65  CA        25.8710   35.7650   50.7390 C.3    54  LYS54       0.1596
     66  C         26.8890   36.6690   50.0730 C.2    54  LYS54       0.2287
     67  O         27.6330   37.3750   50.7550 O.2    54  LYS54      -0.2864
     68  CB        24.9030   36.6040   51.5680 C.3    54  LYS54       0.0298
     69  CG        23.7560   35.7800   52.1360 C.3    54  LYS54       0.0038
     70  CD        22.7910   36.6420   52.9460 C.3    54  LYS54       0.0206
     71  CE        21.7540   35.7730   53.6650 C.3    54  LYS54       0.1093
     72  NZ        21.0550   34.8300   52.7340 N.3    54  LYS54      -0.1314
     73  N         28.5090   39.8300   48.0110 N.3    56  ARG56      -0.1245
     74  CA        28.3070   41.2720   47.9940 C.3    56  ARG56       0.1563
     75  C         29.3350   41.7540   46.9890 C.2    56  ARG56       0.2260
     76  O         30.3310   42.3760   47.3520 O.2    56  ARG56      -0.2867
     77  CB        28.5930   41.8880   49.3620 C.3    56  ARG56       0.0307
     78  CG        27.4700   41.7600   50.3900 C.3    56  ARG56       0.0489
     79  CD        27.4680   40.4010   51.0480 C.3    56  ARG56       0.2205
     80  NE        26.5940   40.3210   52.2180 N.pl3  56  ARG56      -0.0865
     81  CZ        25.2830   40.5380   52.2040 C.cat  56  ARG56       0.5346
     82  NH1       24.6730   40.8620   51.0740 N.pl3  56  ARG56       0.1354
     83  NH2       24.5770   40.3990   53.3200 N.pl3  56  ARG56       0.1354
     84  N         22.8160   27.3710   47.1400 N.3   105  ARG105     -0.1245
     85  CA        22.8680   27.3360   48.5890 C.3   105  ARG105      0.1563
     86  C         23.2510   25.9590   49.1480 C.2   105  ARG105      0.2260
     87  O         23.0100   24.9370   48.5050 O.2   105  ARG105     -0.2867
     88  CB        21.4790   27.7330   49.0910 C.3   105  ARG105      0.0307
     89  CG        21.3450   28.0650   50.5420 C.3   105  ARG105      0.0489
     90  CD        19.8620   28.2760   50.8420 C.3   105  ARG105      0.2205
     91  NE        19.6180   28.7360   52.2060 N.pl3 105  ARG105     -0.0865
     92  CZ        19.8640   29.9680   52.6340 C.cat 105  ARG105      0.5346
     93  NH1       20.3650   30.8700   51.8010 N.pl3 105  ARG105      0.1354
     94  NH2       19.5970   30.2970   53.8930 N.pl3 105  ARG105      0.1354
     95  N         29.4380   37.5230   52.8450 N.3   146  SER146     -0.1202
     96  CA        28.9930   37.4430   54.2320 C.3   146  SER146      0.2020
     97  C         28.8030   35.9640   54.5820 C.2   146  SER146      0.2619
     98  O         28.2490   35.1990   53.7900 O.2   146  SER146     -0.2717
     99  CB        27.6570   38.1720   54.4250 C.3   146  SER146      0.2103
    100  OG        27.8080   39.5800   54.3240 O.3   146  SER146     -0.2182
    101  N         29.2740   35.5430   55.7540 N.am  147  VAL147     -0.1965
    102  CA        29.0800   34.1500   56.1350 C.3   147  VAL147      0.1727
    103  C         28.2580   34.0670   57.4060 C.2   147  VAL147      0.2616
    104  O         28.4120   34.8820   58.3270 O.2   147  VAL147     -0.2715
    105  CB        30.3960   33.3950   56.3660 C.3   147  VAL147      0.0290
    106  CG1       31.1910   33.3300   55.0450 C.3   147  VAL147      0.0023
    107  CG2       31.2040   34.0870   57.4380 C.3   147  VAL147      0.0023
    108  N         27.3790   33.0740   57.4470 N.am  148  HIS148     -0.1973
    109  CA        26.5280   32.8460   58.6090 C.3   148  HIS148      0.1656
    110  C         27.1600   31.7500   59.4590 C.2   148  HIS148      0.2291
    111  O         27.2460   30.5930   59.0390 O.2   148  HIS148     -0.2864
    112  CB        25.1250   32.4470   58.1100 C.3   148  HIS148      0.0771
    113  CG        24.1430   32.1640   59.1980 C.ar  148  HIS148      0.0820
    114  ND1       22.7890   32.0370   58.9590 N.ar  148  HIS148     -0.2267
    115  CD2       24.3130   31.9700   60.5260 C.ar  148  HIS148      0.1154
    116  CE1       22.1680   31.7810   60.0990 C.ar  148  HIS148      0.1986
    117  NE2       23.0690   31.7370   61.0640 N.ar  148  HIS148     -0.2212
@<TRIPOS>BOND
     1    75    76    2
     2    75    74    1
     3    84    85    1
     4    74    73    1
     5    74    77    1
     6    87    86    2
     7    85    88    1
     8    85    86    1
     9    88    89    1
    10    77    78    1
    11    66    65    1
    12    66    67    2
    13    78    79    1
    14    89    90    1
    15    65    68    1
    16    65    64    1
    17    56    55    2
    18    90    91    1
    19    79    80    1
    20    82    81    1
    21    57    58    1
    22    57    54    1
    23    55    64   am
    24    55    54    1
    25    68    69    1
    26    93    92    1
    27    59    58   ar
    28    59    61   ar
    29    58    60   ar
    30    69    70    1
    31    81    80    2
    32    81    83    1
    33    91    92    2
    34    54    53    1
    35    61    63   ar
    36    60    62   ar
    37    51    50   ar
    38    92    94    1
    39    72    71    1
    40    95    96    1
    41    53    47   am
    42    70    71    1
    43    63    62   ar
    44    50    52   ar
    45    50    49    1
    46    98    97    2
    47    47    46    1
    48    47    48    2
    49    96    99    1
    50    96    97    1
    51   100    99    1
    52    46    49    1
    53    46    45    1
    54    97   101   am
    55    43    42   ar
    56   106   105    1
    57   101   102    1
    58    42    41    1
    59    42    44   ar
    60   102   105    1
    61   102   103    1
    62    39    38    1
    63    39    40    2
    64   105   107    1
    65    41    38    1
    66    38    37    1
    67   103   108   am
    68   103   104    2
    69   108   109    1
    70   112   109    1
    71   112   113    1
    72   109   110    1
    73   114   113   ar
    74   114   116   ar
    75   111   110    2
    76   113   115   ar
    77    36    33    1
    78   116   117   ar
    79    33    34    1
    80    33    32    1
    81    34    35    2
    82   115   117   ar
    83     6     5    1
    84    14    13    1
    85     5     7    1
    86     5     2    1
    87    15    13    1
    88    13    12    1
    89     1     2    1
    90     2     3    1
    91    31    29   ar
    92     4     3    2
    93    12     9    1
    94    29    28    1
    95    29    30   ar
    96    28    25    1
    97     9     8    1
    98     9    10    1
    99    26    25    1
   100    26    27    2
   101    25    24    1
   102    11    10    2
   103    10    16   am
   104    23    21   ar
   105    16    17    1
   106    21    20    1
   107    21    22   ar
   108    20    17    1
   109    17    18    1
   110    19    18    2
