@<TRIPOS>MOLECULE
tmp/1sdxA01.pdb
 137 129 0 0 0
SMALL
GASTEIGER

@<TRIPOS>ATOM
      1  N         21.3770    9.7250    7.7150 N.3    74  ARG74      -0.1231
      2  CA        21.6010    8.9290    6.5100 C.3    74  ARG74       0.1694
      3  C         21.5630    9.8460    5.2880 C.2    74  ARG74       0.2592
      4  O         21.2500   11.0300    5.4150 O.2    74  ARG74      -0.2718
      5  CB        20.5720    7.7950    6.3920 C.3    74  ARG74       0.0321
      6  CG        19.1310    8.2210    6.2350 C.3    74  ARG74       0.0489
      7  CD        18.2860    7.0320    5.7960 C.3    74  ARG74       0.2205
      8  NE        16.9260    7.4190    5.4310 N.pl3  74  ARG74      -0.0865
      9  CZ        16.0470    7.9600    6.2720 C.cat  74  ARG74       0.5346
     10  NH1       16.3810    8.1820    7.5370 N.pl3  74  ARG74       0.1354
     11  NH2       14.8290    8.2760    5.8480 N.pl3  74  ARG74       0.1354
     12  N         21.8850    9.3170    4.1100 N.am   75  LYS75      -0.1966
     13  CA        21.9130   10.1520    2.9070 C.3    75  LYS75       0.1728
     14  C         20.5820   10.7340    2.4370 C.2    75  LYS75       0.2617
     15  O         19.6050   10.0130    2.2230 O.2    75  LYS75      -0.2715
     16  CB        22.6030    9.4080    1.7570 C.3    75  LYS75       0.0311
     17  CG        22.2630    7.9370    1.6100 C.3    75  LYS75       0.0038
     18  CD        23.3320    7.2410    0.7680 C.3    75  LYS75       0.0206
     19  CE        24.6750    7.1310    1.5050 C.3    75  LYS75       0.1093
     20  NZ        25.1590    8.4090    2.1080 N.3    75  LYS75      -0.1314
     21  N         20.5620   12.0570    2.2740 N.am   76  SER76      -0.1936
     22  CA        19.3580   12.7630    1.8490 C.3    76  SER76       0.2055
     23  C         19.5730   13.7560    0.7110 C.2    76  SER76       0.2643
     24  O         20.6720   14.2780    0.5000 O.2    76  SER76      -0.2714
     25  CB        18.7350   13.5070    3.0280 C.3    76  SER76       0.2130
     26  OG        19.3600   14.7660    3.2130 O.3    76  SER76      -0.2179
     27  N         18.4810   14.0340    0.0120 N.am   77  SER77      -0.1949
     28  CA        18.4780   14.9340   -1.1270 C.3    77  SER77       0.1924
     29  C         18.0450   16.3880   -0.8890 C.2    77  SER77       0.2314
     30  O         18.6480   17.3060   -1.4400 O.2    77  SER77      -0.2863
     31  CB        17.6020   14.3170   -2.2290 C.3    77  SER77       0.2116
     32  OG        16.5840   13.5040   -1.6650 O.3    77  SER77      -0.2180
     33  N         10.9870    6.1020    7.9620 N.3    93  LEU93      -0.1245
     34  CA         9.6060    5.6770    7.8160 C.3    93  LEU93       0.1561
     35  C          9.3300    4.2940    8.3770 C.2    93  LEU93       0.2260
     36  O          9.9080    3.3210    7.9230 O.2    93  LEU93      -0.2867
     37  CB         9.2270    5.6970    6.3360 C.3    93  LEU93       0.0270
     38  CG         9.4630    6.9910    5.5490 C.3    93  LEU93       0.0019
     39  CD1        8.9560    6.8020    4.1300 C.3    93  LEU93       0.0001
     40  CD2        8.7400    8.1490    6.2000 C.3    93  LEU93       0.0001
     41  N         11.3050    1.6000    6.0180 N.3   204  ASN204     -0.1225
     42  CA        11.4390    1.6110    4.5580 C.3   204  ASN204      0.1785
     43  C         12.7980    1.1520    4.0590 C.2   204  ASN204      0.2597
     44  O         12.8750    0.3370    3.1450 O.2   204  ASN204     -0.2718
     45  CB        11.1490    3.0060    3.9650 C.3   204  ASN204      0.1169
     46  CG        11.6490    3.1410    2.5240 C.2   204  ASN204      0.2627
     47  OD1       11.1210    2.5490    1.5870 O.2   204  ASN204     -0.2716
     48  ND2       12.6640    3.9120    2.3560 N.am  204  ASN204     -0.0877
     49  N         13.8630    1.6770    4.6500 N.am  205  ASP205     -0.1974
     50  CA        15.2110    1.3840    4.2210 C.3   205  ASP205      0.1709
     51  C         15.5910   -0.1290    4.2840 C.2   205  ASP205      0.2293
     52  O         16.3510   -0.6080    3.4470 O.2   205  ASP205     -0.2864
     53  CB        16.2000    2.2250    5.0690 C.3   205  ASP205      0.1436
     54  CG        15.6560    3.6100    5.5160 C.2   205  ASP205      0.3671
     55  OD1       14.5840    3.6770    6.1480 O.co2 205  ASP205     -0.2456
     56  OD2       16.3490    4.6200    5.2590 O.co2 205  ASP205     -0.2456
     57  N         14.8280   -2.1880    0.9790 N.3   208  TRP208     -0.1227
     58  CA        15.7630   -1.9040   -0.0980 C.3   208  TRP208      0.1737
     59  C         17.1470   -2.5040    0.0800 C.2   208  TRP208      0.2595
     60  O         17.7290   -3.0280   -0.8700 O.2   208  TRP208     -0.2718
     61  CB        15.8950   -0.3920   -0.2630 C.3   208  TRP208      0.0564
     62  CG        14.6360    0.2240   -0.7340 C.ar  208  TRP208      0.0003
     63  CD1       13.5080    0.4550   -0.0010 C.ar  208  TRP208      0.0946
     64  CD2       14.3170    0.5630   -2.0830 C.ar  208  TRP208      0.0152
     65  NE1       12.4980    0.9100   -0.8160 N.ar  208  TRP208     -0.2442
     66  CE2       12.9690    0.9880   -2.1020 C.ar  208  TRP208      0.0810
     67  CE3       15.0380    0.5490   -3.2860 C.ar  208  TRP208      0.0012
     68  CZ2       12.3260    1.3900   -3.2780 C.ar  208  TRP208      0.0191
     69  CZ3       14.4000    0.9480   -4.4550 C.ar  208  TRP208      0.0001
     70  CH2       13.0580    1.3640   -4.4400 C.ar  208  TRP208      0.0015
     71  N         17.6760   -2.4150    1.2950 N.am  209  GLU209     -0.1979
     72  CA        19.0080   -2.9220    1.5870 C.3   209  GLU209      0.1602
     73  C         19.1110   -4.4370    1.5570 C.2   209  GLU209      0.2287
     74  O         20.2140   -4.9840    1.5050 O.2   209  GLU209     -0.2864
     75  CB        19.4750   -2.3900    2.9480 C.3   209  GLU209      0.0415
     76  CG        19.9750   -0.9430    2.9070 C.3   209  GLU209      0.1163
     77  CD        19.7770   -0.1980    4.2290 C.2   209  GLU209      0.3649
     78  OE1       20.0920   -0.7710    5.2990 O.co2 209  GLU209     -0.2457
     79  OE2       19.3070    0.9670    4.1970 O.co2 209  GLU209     -0.2457
     80  N         21.3090   -6.3370   -3.0680 N.3   214  GLU214     -0.1245
     81  CA        22.0360   -5.4300   -2.1780 C.3   214  GLU214      0.1567
     82  C         22.7120   -6.1070   -0.9660 C.2   214  GLU214      0.2260
     83  O         23.5400   -5.4610   -0.3080 O.2   214  GLU214     -0.2867
     84  CB        21.0950   -4.3350   -1.6390 C.3   214  GLU214      0.0388
     85  CG        20.5790   -3.3230   -2.6530 C.3   214  GLU214      0.1160
     86  CD        21.6540   -2.3680   -3.1440 C.2   214  GLU214      0.3649
     87  OE1       22.4220   -1.8400   -2.3090 O.co2 214  GLU214     -0.2457
     88  OE2       21.7220   -2.1370   -4.3700 O.co2 214  GLU214     -0.2457
     89  N         12.2260   -6.8110   -4.8090 N.3   225  ARG225     -0.1245
     90  CA        11.2590   -5.9260   -4.1540 C.3   225  ARG225      0.1563
     91  C          9.8320   -6.0320   -4.6820 C.2   225  ARG225      0.2260
     92  O          8.8870   -5.6930   -3.9720 O.2   225  ARG225     -0.2867
     93  CB        11.6910   -4.4560   -4.2120 C.3   225  ARG225      0.0307
     94  CG        13.0090   -4.1800   -4.8770 C.3   225  ARG225      0.0489
     95  CD        13.5170   -2.8080   -4.4630 C.3   225  ARG225      0.2205
     96  NE        14.8220   -2.9300   -3.8260 N.pl3 225  ARG225     -0.0865
     97  CZ        15.9520   -2.4600   -4.3410 C.cat 225  ARG225      0.5346
     98  NH1       15.9360   -1.8240   -5.5060 N.pl3 225  ARG225      0.1354
     99  NH2       17.0990   -2.6400   -3.6970 N.pl3 225  ARG225      0.1354
    100  N          7.7800    1.1320   -3.3800 N.3   241  THR241     -0.1218
    101  CA         8.2610    2.3990   -3.9360 C.3   241  THR241      0.1862
    102  C          7.4130    3.5630   -3.4300 C.2   241  THR241      0.2287
    103  O          7.7880    4.7200   -3.5880 O.2   241  THR241     -0.2866
    104  CB         8.1800    2.4220   -5.4810 C.3   241  THR241      0.1770
    105  OG1        6.9030    1.9220   -5.8900 O.3   241  THR241     -0.2211
    106  CG2        9.2770    1.5840   -6.1050 C.3   241  THR241      0.0375
    107  N          6.5400    4.2820   -0.2160 N.3   243  ALA243     -0.1231
    108  CA         6.6500    4.4220    1.2280 C.3   243  ALA243      0.1694
    109  C          6.2340    5.7900    1.7560 C.2   243  ALA243      0.2591
    110  O          5.6620    5.8810    2.8420 O.2   243  ALA243     -0.2718
    111  CB         8.0750    4.1090    1.6770 C.3   243  ALA243      0.0304
    112  N          6.5100    6.8560    1.0090 N.am  244  GLN244     -0.1979
    113  CA         6.1530    8.1820    1.5070 C.3   244  GLN244      0.1601
    114  C          4.6470    8.3910    1.5660 C.2   244  GLN244      0.2287
    115  O          4.1770    9.3240    2.2100 O.2   244  GLN244     -0.2864
    116  CB         6.8210    9.2960    0.6790 C.3   244  GLN244      0.0394
    117  CG         6.7920   10.6910    1.3570 C.3   244  GLN244      0.0908
    118  CD         7.5300   10.7510    2.7080 C.2   244  GLN244      0.2608
    119  OE1        6.9800   11.2210    3.7150 O.2   244  GLN244     -0.2717
    120  NE2        8.7800   10.2920    2.7250 N.am  244  GLN244     -0.0878
    121  N         32.4030    7.6650    7.1130 N.3   279  LYS279     -0.1245
    122  CA        32.2550    7.4910    5.6670 C.3   279  LYS279      0.1561
    123  C         33.4020    7.9450    4.7590 C.2   279  LYS279      0.2260
    124  O         33.8910    7.1700    3.9320 O.2   279  LYS279     -0.2867
    125  CB        30.9720    8.1670    5.2120 C.3   279  LYS279      0.0271
    126  CG        30.6950    7.9850    3.7440 C.3   279  LYS279      0.0035
    127  CD        29.2270    8.2030    3.4590 C.3   279  LYS279      0.0206
    128  CE        28.8250    7.5550    2.1450 C.3   279  LYS279      0.1093
    129  NZ        29.5170    8.1690    0.9800 N.3   279  LYS279     -0.1314
    130  N         23.4860    2.1470    7.1820 N.3   303  ASN303     -0.1240
    131  CA        23.2400    3.2030    6.2000 C.3   303  ASN303      0.1653
    132  C         23.5410    4.6050    6.7390 C.2   303  ASN303      0.2266
    133  O         23.1760    5.6010    6.1260 O.2   303  ASN303     -0.2867
    134  CB        21.7940    3.1430    5.6700 C.3   303  ASN303      0.1155
    135  CG        20.7500    3.5050    6.7190 C.2   303  ASN303      0.2627
    136  OD1       21.0580    3.7140    7.8870 O.2   303  ASN303     -0.2716
    137  ND2       19.4980    3.5780    6.2930 N.am  303  ASN303     -0.0877
@<TRIPOS>BOND
     1   106   104    1
     2   105   104    1
     3    98    97    1
     4   104   101    1
     5    94    95    1
     6    94    93    1
     7    89    90    1
     8    91    90    1
     9    91    92    2
    10    95    96    1
    11    69    70   ar
    12    69    67   ar
    13    70    68   ar
    14    88    86   ar
    15    97    96    2
    16    97    99    1
    17    93    90    1
    18   101   102    1
    19   101   100    1
    20   103   102    2
    21    67    64   ar
    22    68    66   ar
    23    86    85    1
    24    86    87   ar
    25    80    81    1
    26    85    84    1
    27    31    32    1
    28    31    28    1
    29    81    84    1
    30    81    82    1
    31    66    64   ar
    32    66    65   ar
    33    64    62   ar
    34    30    29    2
    35    28    29    1
    36    28    27    1
    37    82    83    2
    38    60    59    2
    39    65    63   ar
    40    62    61    1
    41    62    63   ar
    42    61    58    1
    43   107   108    1
    44    58    59    1
    45    58    57    1
    46    27    23   am
    47    59    71   am
    48    24    23    2
    49   116   117    1
    50   116   113    1
    51    23    22    1
    52    18    19    1
    53    18    17    1
    54   129   128    1
    55   112   113    1
    56   112   109   am
    57   108   111    1
    58   108   109    1
    59    71    72    1
    60   117   118    1
    61    74    73    2
    62    19    20    1
    63   113   114    1
    64    73    72    1
    65   114   115    2
    66    72    75    1
    67    47    46    2
    68    17    16    1
    69   109   110    2
    70    16    13    1
    71    22    21    1
    72    22    25    1
    73   128   127    1
    74    15    14    2
    75    21    14   am
    76    48    46   am
    77    14    13    1
    78    46    45    1
    79   118   120   am
    80   118   119    2
    81    76    75    1
    82    76    77    1
    83    13    12    1
    84    25    26    1
    85    44    43    2
    86    52    51    2
    87   127   126    1
    88   126   125    1
    89   124   123    2
    90    45    42    1
    91    43    42    1
    92    43    49   am
    93    12     3   am
    94    39    38    1
    95    79    77   ar
    96    50    51    1
    97    50    49    1
    98    50    53    1
    99    77    78   ar
   100    42    41    1
   101   123   122    1
   102    53    54    1
   103   125   122    1
   104    56    54   ar
   105     3     4    2
   106     3     2    1
   107     8     7    1
   108     8     9    2
   109    54    55   ar
   110    38    40    1
   111    38    37    1
   112   122   121    1
   113   134   131    1
   114   134   135    1
   115     7     6    1
   116    11     9    1
   117   133   132    2
   118   131   132    1
   119   131   130    1
   120     6     5    1
   121     9    10    1
   122   137   135   am
   123    37    34    1
   124     5     2    1
   125     2     1    1
   126   135   136    2
   127    34    33    1
   128    34    35    1
   129    36    35    2
