@<TRIPOS>MOLECULE
tmp/1sdzA00.pdb
 133 131 0 0 0
SMALL
GASTEIGER

@<TRIPOS>ATOM
      1  N         49.3830   28.4640    6.5000 N.3    39  LYS39      -0.1245
      2  CA        49.4430   28.7120    5.0650 C.3    39  LYS39       0.1561
      3  C         48.5980   29.8850    4.5860 C.2    39  LYS39       0.2260
      4  O         47.4500   30.0650    4.9940 O.2    39  LYS39      -0.2867
      5  CB        49.0920   27.4480    4.2620 C.3    39  LYS39       0.0271
      6  CG        48.3230   26.3940    5.0120 C.3    39  LYS39       0.0035
      7  CD        46.8870   26.2750    4.5260 C.3    39  LYS39       0.0206
      8  CE        46.7910   25.6980    3.1190 C.3    39  LYS39       0.1093
      9  NZ        45.3760   25.3840    2.7630 N.3    39  LYS39      -0.1314
     10  N         47.7080   32.3570    0.9290 N.3    41  LYS41      -0.1245
     11  CA        47.6000   32.1810   -0.5130 C.3    41  LYS41       0.1561
     12  C         47.5420   33.5430   -1.1780 C.2    41  LYS41       0.2260
     13  O         46.8560   34.4440   -0.7020 O.2    41  LYS41      -0.2867
     14  CB        46.3360   31.3720   -0.8370 C.3    41  LYS41       0.0271
     15  CG        46.0900   31.0790   -2.3070 C.3    41  LYS41       0.0035
     16  CD        44.8110   30.2560   -2.4670 C.3    41  LYS41       0.0206
     17  CE        44.5320   29.8820   -3.9180 C.3    41  LYS41       0.1093
     18  NZ        45.4900   28.8730   -4.4620 N.3    41  LYS41      -0.1314
     19  N         48.4740   35.3350   -7.8770 N.3    45  CYS45      -0.1221
     20  CA        49.1320   34.2680   -8.6310 C.3    45  CYS45       0.1808
     21  C         48.6590   32.9040   -8.1210 C.2    45  CYS45       0.2602
     22  O         48.8800   31.8760   -8.7570 O.2    45  CYS45      -0.2717
     23  CB        50.6540   34.3830   -8.5160 C.3    45  CYS45       0.0970
     24  SG        51.3100   34.0030   -6.8760 S.3    45  CYS45      -0.0800
     25  N         47.9990   32.9090   -6.9670 N.am   46  GLY46      -0.1942
     26  CA        47.4730   31.6800   -6.4020 C.3    46  GLY46       0.2014
     27  C         48.4200   30.7690   -5.6410 C.2    46  GLY46       0.2639
     28  O         47.9930   29.7260   -5.1500 O.2    46  GLY46      -0.2714
     29  N         49.6910   31.1340   -5.5330 N.am   47  VAL47      -0.1963
     30  CA        50.6380   30.2930   -4.8050 C.3    47  VAL47       0.1727
     31  C         50.2100   30.1590   -3.3430 C.2    47  VAL47       0.2616
     32  O         49.6900   31.1050   -2.7520 O.2    47  VAL47      -0.2715
     33  CB        52.0710   30.8780   -4.8500 C.3    47  VAL47       0.0290
     34  CG1       52.1430   32.1640   -4.0340 C.3    47  VAL47       0.0023
     35  CG2       53.0720   29.8480   -4.3270 C.3    47  VAL47       0.0023
     36  N         50.4090   28.9760   -2.7710 N.am   48  GLU48      -0.1963
     37  CA        50.0600   28.7330   -1.3740 C.3    48  GLU48       0.1733
     38  C         51.3530   28.3840   -0.6500 C.2    48  GLU48       0.2616
     39  O         52.0760   27.4790   -1.0730 O.2    48  GLU48      -0.2715
     40  CB        49.0660   27.5730   -1.2520 C.3    48  GLU48       0.0429
     41  CG        47.7970   27.7330   -2.0780 C.3    48  GLU48       0.1163
     42  CD        46.7910   26.6180   -1.8210 C.2    48  GLU48       0.3649
     43  OE1       45.7600   26.5640   -2.5310 O.co2  48  GLU48      -0.2457
     44  OE2       47.0300   25.8020   -0.9020 O.co2  48  GLU48      -0.2457
     45  N         51.6440   29.1080    0.4310 N.am   49  ILE49      -0.1963
     46  CA        52.8690   28.8890    1.1960 C.3    49  ILE49       0.1727
     47  C         52.6180   28.7470    2.6980 C.2    49  ILE49       0.2617
     48  O         51.9180   29.5570    3.3050 O.2    49  ILE49      -0.2715
     49  CB        53.8700   30.0530    0.9780 C.3    49  ILE49       0.0290
     50  CG1       54.1160   30.2600   -0.5190 C.3    49  ILE49       0.0022
     51  CG2       55.1890   29.7480    1.6900 C.3    49  ILE49       0.0023
     52  CD1       55.0280   31.4360   -0.8340 C.3    49  ILE49       0.0001
     53  N         53.2100   27.7120    3.2870 N.am   50  GLY50      -0.1940
     54  CA        53.0600   27.4640    4.7080 C.3    50  GLY50       0.2014
     55  C         54.3520   26.9210    5.2800 C.2    50  GLY50       0.2640
     56  O         55.3950   27.0000    4.6280 O.2    50  GLY50      -0.2714
     57  N         54.2790   26.3510    6.4820 N.am   51  SER51      -0.1935
     58  CA        55.4470   25.8110    7.1680 C.3    51  SER51       0.2055
     59  C         56.5670   26.8460    7.1750 C.2    51  SER51       0.2643
     60  O         57.7180   26.5450    6.8500 O.2    51  SER51      -0.2714
     61  CB        55.9270   24.5290    6.4860 C.3    51  SER51       0.2130
     62  OG        54.9460   23.5080    6.5750 O.3    51  SER51      -0.2179
     63  N         56.2200   28.0700    7.5490 N.am   52  TRP52      -0.1959
     64  CA        57.1900   29.1590    7.5950 C.3    52  TRP52       0.1771
     65  C         58.2930   28.9600    8.6320 C.2    52  TRP52       0.2619
     66  O         58.0340   28.5320    9.7580 O.2    52  TRP52      -0.2715
     67  CB        56.4850   30.4890    7.8800 C.3    52  TRP52       0.0590
     68  CG        55.5430   30.9460    6.8040 C.ar   52  TRP52       0.0006
     69  CD1       54.2220   30.6280    6.6740 C.ar   52  TRP52       0.0946
     70  CD2       55.8610   31.8060    5.7010 C.ar   52  TRP52       0.0152
     71  NE1       53.6930   31.2430    5.5580 N.ar   52  TRP52      -0.2442
     72  CE2       54.6800   31.9690    4.9430 C.ar   52  TRP52       0.0810
     73  CE3       57.0320   32.4550    5.2810 C.ar   52  TRP52       0.0012
     74  CZ2       54.6350   32.7550    3.7850 C.ar   52  TRP52       0.0191
     75  CZ3       56.9870   33.2390    4.1280 C.ar   52  TRP52       0.0001
     76  CH2       55.7950   33.3800    3.3950 C.ar   52  TRP52       0.0015
     77  N         59.5250   29.2690    8.2400 N.am   53  GLU53      -0.1977
     78  CA        60.6730   29.1670    9.1380 C.3    53  GLU53       0.1602
     79  C         61.0220   30.6090    9.5010 C.2    53  GLU53       0.2287
     80  O         60.9050   31.5080    8.6620 O.2    53  GLU53      -0.2864
     81  CB        61.8720   28.5170    8.4320 C.3    53  GLU53       0.0415
     82  CG        61.6550   27.0980    7.9230 C.3    53  GLU53       0.1163
     83  CD        61.4670   26.0790    9.0290 C.2    53  GLU53       0.3649
     84  OE1       61.8020   26.3800   10.1960 O.co2  53  GLU53      -0.2457
     85  OE2       60.9930   24.9640    8.7240 O.co2  53  GLU53      -0.2457
     86  N         62.6490   32.9750    7.1380 N.3    56  ASP56      -0.1239
     87  CA        61.9100   33.3410    5.9300 C.3    56  ASP56       0.1674
     88  C         61.2790   34.7250    5.9630 C.2    56  ASP56       0.2266
     89  O         60.7630   35.1650    6.9840 O.2    56  ASP56      -0.2867
     90  CB        60.7950   32.3220    5.6460 C.3    56  ASP56       0.1410
     91  CG        61.3110   30.9060    5.5070 C.2    56  ASP56       0.3668
     92  OD1       62.4770   30.7250    5.0970 O.co2  56  ASP56      -0.2456
     93  OD2       60.5360   29.9690    5.7900 O.co2  56  ASP56      -0.2456
     94  N         60.2410   34.8800   -0.1260 N.3    61  GLU61      -0.1245
     95  CA        59.6770   33.5310   -0.1330 C.3    61  GLU61       0.1567
     96  C         58.6010   33.4480   -1.2150 C.2    61  GLU61       0.2260
     97  O         58.4770   32.4530   -1.9260 O.2    61  GLU61      -0.2867
     98  CB        59.0810   33.2180    1.2430 C.3    61  GLU61       0.0388
     99  CG        58.9600   31.7430    1.5710 C.3    61  GLU61       0.1160
    100  CD        60.2780   30.9910    1.4260 C.2    61  GLU61       0.3649
    101  OE1       61.3400   31.5720    1.7170 O.co2  61  GLU61      -0.2457
    102  OE2       60.2490   29.8100    1.0320 O.co2  61  GLU61      -0.2457
    103  N         60.2740   33.4600   -4.5260 N.3    64  ARG64      -0.1231
    104  CA        60.9650   32.1890   -4.6760 C.3    64  ARG64       0.1694
    105  C         60.0920   31.1210   -5.3300 C.2    64  ARG64       0.2592
    106  O         60.5290   30.4260   -6.2500 O.2    64  ARG64      -0.2718
    107  CB        61.4330   31.6990   -3.3020 C.3    64  ARG64       0.0321
    108  CG        62.0200   30.3000   -3.2890 C.3    64  ARG64       0.0489
    109  CD        62.2880   29.8410   -1.8630 C.3    64  ARG64       0.2205
    110  NE        62.7540   28.4570   -1.8160 N.pl3  64  ARG64      -0.0865
    111  CZ        62.8750   27.7400   -0.7010 C.cat  64  ARG64       0.5346
    112  NH1       62.5660   28.2690    0.4750 N.pl3  64  ARG64       0.1354
    113  NH2       63.3060   26.4870   -0.7640 N.pl3  64  ARG64       0.1354
    114  N         58.8570   30.9970   -4.8570 N.am   65  TRP65      -0.1962
    115  CA        57.9420   29.9920   -5.3780 C.3    65  TRP65       0.1771
    116  C         57.0420   30.4680   -6.5240 C.2    65  TRP65       0.2620
    117  O         56.4580   29.6570   -7.2430 O.2    65  TRP65      -0.2715
    118  CB        57.0760   29.4500   -4.2390 C.3    65  TRP65       0.0590
    119  CG        57.8610   28.8500   -3.0940 C.ar   65  TRP65       0.0006
    120  CD1       58.0200   29.3780   -1.8450 C.ar   65  TRP65       0.0946
    121  CD2       58.5430   27.5860   -3.0830 C.ar   65  TRP65       0.0152
    122  NE1       58.7510   28.5190   -1.0530 N.ar   65  TRP65      -0.2442
    123  CE2       59.0840   27.4130   -1.7880 C.ar   65  TRP65       0.0810
    124  CE3       58.7440   26.5830   -4.0390 C.ar   65  TRP65       0.0012
    125  CZ2       59.8150   26.2720   -1.4240 C.ar   65  TRP65       0.0191
    126  CZ3       59.4730   25.4450   -3.6780 C.ar   65  TRP65       0.0001
    127  CH2       59.9980   25.3020   -2.3790 C.ar   65  TRP65       0.0015
    128  N         56.9250   31.7770   -6.6980 N.am   66  SER66      -0.1950
    129  CA        56.0830   32.3060   -7.7640 C.3    66  SER66       0.1924
    130  C         56.7600   33.5300   -8.3660 C.2    66  SER66       0.2314
    131  O         56.2420   34.6390   -8.2880 O.2    66  SER66      -0.2863
    132  CB        54.7110   32.6760   -7.1940 C.3    66  SER66       0.2116
    133  OG        53.7580   32.8580   -8.2220 O.3    66  SER66      -0.2180
@<TRIPOS>BOND
     1    22    21    2
     2    20    23    1
     3    20    21    1
     4    20    19    1
     5    23    24    1
     6   130   131    2
     7   130   129    1
     8   133   132    1
     9    21    25   am
    10   129   132    1
    11   129   128    1
    12   117   116    2
    13    25    26    1
    14   128   116   am
    15   116   115    1
    16    26    27    1
    17   106   105    2
    18    27    29   am
    19    27    28    2
    20    29    30    1
    21   115   114    1
    22   115   118    1
    23   105   114   am
    24   105   104    1
    25    33    30    1
    26    33    35    1
    27    33    34    1
    28    30    31    1
    29   104   103    1
    30   104   107    1
    31    18    17    1
    32   118   119    1
    33   124   126   ar
    34   124   121   ar
    35    17    16    1
    36   126   127   ar
    37    31    36   am
    38    31    32    2
    39   107   108    1
    40   108   109    1
    41   119   121   ar
    42   119   120   ar
    43   121   123   ar
    44    36    37    1
    45    43    42   ar
    46    16    15    1
    47   127   125   ar
    48    15    14    1
    49    41    42    1
    50    41    40    1
    51    97    96    2
    52   109   110    1
    53   120   122   ar
    54    42    44   ar
    55   110   111    2
    56   123   125   ar
    57   123   122   ar
    58    37    40    1
    59    37    38    1
    60    96    95    1
    61    12    13    2
    62    12    11    1
    63    39    38    2
    64    14    11    1
    65    52    50    1
    66   113   111    1
    67   111   112    1
    68    38    45   am
    69    50    49    1
    70    11    10    1
    71    95    94    1
    72    95    98    1
    73    45    46    1
    74    49    46    1
    75    49    51    1
    76   102   100   ar
    77    46    47    1
    78    98    99    1
    79   100    99    1
    80   100   101   ar
    81    47    53   am
    82    47    48    2
    83     9     8    1
    84     8     7    1
    85    53    54    1
    86    76    74   ar
    87    76    75   ar
    88    74    72   ar
    89    75    73   ar
    90     5     6    1
    91     5     2    1
    92     7     6    1
    93     3     4    2
    94     3     2    1
    95    56    55    2
    96    54    55    1
    97    72    71   ar
    98    72    70   ar
    99     2     1    1
   100    92    91   ar
   101    55    57   am
   102    73    70   ar
   103    91    90    1
   104    91    93   ar
   105    71    69   ar
   106    90    87    1
   107    70    68   ar
   108    87    88    1
   109    87    86    1
   110    88    89    2
   111    57    58    1
   112    61    62    1
   113    61    58    1
   114    69    68   ar
   115    68    67    1
   116    60    59    2
   117    58    59    1
   118    59    63   am
   119    63    64    1
   120    64    67    1
   121    64    65    1
   122    82    81    1
   123    82    83    1
   124    77    65   am
   125    77    78    1
   126    81    78    1
   127    65    66    2
   128    80    79    2
   129    85    83   ar
   130    83    84   ar
   131    78    79    1
