@<TRIPOS>MOLECULE
tmp/1se6A02.pdb
 74 74 0 0 0
SMALL
GASTEIGER

@<TRIPOS>ATOM
      1  N        -27.6050   53.7770   69.6610 N.3    11  ASP11      -0.1225
      2  CA       -26.7990   54.4800   68.6730 C.3    11  ASP11       0.1805
      3  C        -25.3640   54.5690   69.1670 C.2    11  ASP11       0.2598
      4  O        -25.1250   54.9260   70.3170 O.2    11  ASP11      -0.2718
      5  CB       -27.3760   55.8760   68.4340 C.3    11  ASP11       0.1424
      6  CG       -28.6390   55.8450   67.5800 C.2    11  ASP11       0.3668
      7  OD1      -28.7670   54.9220   66.7480 O.co2  11  ASP11      -0.2456
      8  OD2      -29.4890   56.7490   67.7190 O.co2  11  ASP11      -0.2456
      9  N        -24.4100   54.2520   68.2950 N.am   12  TRP12      -0.1963
     10  CA       -22.9960   54.2600   68.6740 C.3    12  TRP12       0.1756
     11  C        -22.1630   55.1730   67.7570 C.2    12  TRP12       0.2461
     12  O        -21.4790   54.7050   66.8530 O.2    12  TRP12      -0.2730
     13  CB       -22.4770   52.8220   68.6150 C.3    12  TRP12       0.0590
     14  CG       -21.2140   52.5430   69.3730 C.ar   12  TRP12       0.0006
     15  CD1      -20.3780   53.4510   69.9550 C.ar   12  TRP12       0.0946
     16  CD2      -20.6240   51.2560   69.5880 C.ar   12  TRP12       0.0152
     17  NE1      -19.2990   52.8060   70.5190 N.ar   12  TRP12      -0.2442
     18  CE2      -19.4260   51.4580   70.3050 C.ar   12  TRP12       0.0810
     19  CE3      -20.9930   49.9480   69.2400 C.ar   12  TRP12       0.0012
     20  CZ2      -18.5890   50.4000   70.6850 C.ar   12  TRP12       0.0191
     21  CZ3      -20.1640   48.8950   69.6180 C.ar   12  TRP12       0.0001
     22  CH2      -18.9750   49.1280   70.3330 C.ar   12  TRP12       0.0015
     23  N        -22.1990   56.4940   68.0030 N.am   13  PRO13      -0.2727
     24  CA       -21.4660   57.4990   67.2180 C.3    13  PRO13       0.1402
     25  C        -19.9520   57.3340   67.2740 C.2    13  PRO13       0.2269
     26  O        -19.4130   56.8530   68.2660 O.2    13  PRO13      -0.2865
     27  CB       -21.8780   58.8290   67.8580 C.3    13  PRO13       0.0296
     28  CG       -23.0630   58.5150   68.7000 C.3    13  PRO13       0.0237
     29  CD       -22.8620   57.1100   69.1630 C.3    13  PRO13       0.0939
     30  N        -26.6080   50.5870   66.2480 N.3    39  SER39      -0.1202
     31  CA       -26.6780   51.2380   64.9490 C.3    39  SER39       0.2020
     32  C        -25.4070   52.0780   64.8880 C.2    39  SER39       0.2619
     33  O        -25.1690   52.8990   65.7720 O.2    39  SER39      -0.2717
     34  CB       -27.9130   52.1310   64.8440 C.3    39  SER39       0.2103
     35  OG       -27.9960   52.7040   63.5490 O.3    39  SER39      -0.2182
     36  N        -24.5880   51.8530   63.8640 N.am   40  LEU40      -0.1966
     37  CA       -23.3270   52.5750   63.7010 C.3    40  LEU40       0.1713
     38  C        -23.4860   53.7370   62.7160 C.2    40  LEU40       0.2458
     39  O        -24.5270   53.8620   62.0720 O.2    40  LEU40      -0.2730
     40  CB       -22.2370   51.5940   63.2510 C.3    40  LEU40       0.0310
     41  CG       -21.9090   50.5570   64.3380 C.3    40  LEU40       0.0022
     42  CD1      -21.2530   49.3230   63.7340 C.3    40  LEU40       0.0001
     43  CD2      -21.0130   51.1980   65.3870 C.3    40  LEU40       0.0001
     44  N        -22.4680   54.6140   62.6000 N.am   41  PRO41      -0.2727
     45  CA       -22.5200   55.7750   61.6990 C.3    41  PRO41       0.1402
     46  C        -22.9080   55.5480   60.2440 C.2    41  PRO41       0.2269
     47  O        -23.6960   56.3100   59.6810 O.2    41  PRO41      -0.2865
     48  CB       -21.1180   56.3690   61.8180 C.3    41  PRO41       0.0296
     49  CG       -20.7200   56.0140   63.2160 C.3    41  PRO41       0.0237
     50  CD       -21.1820   54.5840   63.3210 C.3    41  PRO41       0.0939
     51  N        -23.6950   52.6480   56.7510 N.3    43  GLY43      -0.1210
     52  CA       -24.5060   51.4790   56.4880 C.3    43  GLY43       0.1956
     53  C        -25.8990   51.8670   56.9490 C.2    43  GLY43       0.2612
     54  O        -26.1250   53.0200   57.3220 O.2    43  GLY43      -0.2717
     55  N        -26.8300   50.9220   56.9480 N.am   44  GLU44      -0.1965
     56  CA       -28.1980   51.2280   57.3500 C.3    44  GLU44       0.1733
     57  C        -28.7920   50.2290   58.3400 C.2    44  GLU44       0.2616
     58  O        -28.4290   49.0540   58.3560 O.2    44  GLU44      -0.2715
     59  CB       -29.0980   51.2890   56.1080 C.3    44  GLU44       0.0429
     60  CG       -28.6870   52.3310   55.0800 C.3    44  GLU44       0.1163
     61  CD       -29.0060   53.7520   55.5150 C.2    44  GLU44       0.3649
     62  OE1      -28.5370   54.6990   54.8440 O.co2  44  GLU44      -0.2457
     63  OE2      -29.7300   53.9250   56.5210 O.co2  44  GLU44      -0.2457
     64  N        -29.7120   50.7170   59.1670 N.am   45  GLY45      -0.1955
     65  CA       -30.3870   49.8600   60.1280 C.3    45  GLY45       0.1869
     66  C        -29.6360   49.5080   61.3930 C.2    45  GLY45       0.2309
     67  O        -28.7890   50.2640   61.8600 O.2    45  GLY45      -0.2863
     68  N        -25.2720   48.0580   58.9240 N.3    76  THR76      -0.1218
     69  CA       -24.7960   49.1900   59.7170 C.3    76  THR76       0.1862
     70  C        -23.3370   48.9130   60.1120 C.2    76  THR76       0.2287
     71  O        -23.0050   47.8070   60.5290 O.2    76  THR76      -0.2866
     72  CB       -25.6870   49.3930   60.9770 C.3    76  THR76       0.1770
     73  OG1      -25.3700   50.6470   61.5920 O.3    76  THR76      -0.2211
     74  CG2      -25.4810   48.2670   61.9800 C.3    76  THR76       0.0375
@<TRIPOS>BOND
     1    62    61   ar
     2    60    61    1
     3    60    59    1
     4    61    63   ar
     5    59    56    1
     6    52    51    1
     7    52    53    1
     8    55    53   am
     9    55    56    1
    10    53    54    2
    11    56    57    1
    12    57    58    2
    13    57    64   am
    14    68    69    1
    15    64    65    1
    16    47    46    2
    17    69    70    1
    18    69    72    1
    19    70    71    2
    20    65    66    1
    21    46    45    1
    22    72    73    1
    23    72    74    1
    24    66    67    2
    25    45    48    1
    26    45    44    1
    27    48    49    1
    28    39    38    2
    29    44    38   am
    30    44    50    1
    31    38    37    1
    32    49    50    1
    33    40    37    1
    34    40    41    1
    35    35    34    1
    36    37    36    1
    37    42    41    1
    38    36    32   am
    39    41    43    1
    40    34    31    1
    41    32    31    1
    42    32    33    2
    43    31    30    1
    44     7     6   ar
    45    12    11    2
    46    24    25    1
    47    24    27    1
    48    24    23    1
    49    25    26    2
    50     6     8   ar
    51     6     5    1
    52    11    23   am
    53    11    10    1
    54    27    28    1
    55    23    29    1
    56     9    10    1
    57     9     3   am
    58     5     2    1
    59    13    10    1
    60    13    14    1
    61     2     3    1
    62     2     1    1
    63    28    29    1
    64     3     4    2
    65    19    16   ar
    66    19    21   ar
    67    14    16   ar
    68    14    15   ar
    69    16    18   ar
    70    21    22   ar
    71    15    17   ar
    72    18    17   ar
    73    18    20   ar
    74    22    20   ar
