@<TRIPOS>MOLECULE
tmp/1sebA00.pdb
 179 173 0 0 0
SMALL
GASTEIGER

@<TRIPOS>ATOM
      1  N         36.8230   44.6820    4.4960 N.3     9  GLN9       -0.1245
      2  CA        37.1130   45.5100    3.3610 C.3     9  GLN9        0.1566
      3  C         37.7280   46.7190    4.0500 C.2     9  GLN9        0.2260
      4  O         37.0600   47.4390    4.7880 O.2     9  GLN9       -0.2867
      5  CB        35.8220   45.9420    2.6930 C.3     9  GLN9        0.0367
      6  CG        35.9660   47.0850    1.7190 C.3     9  GLN9        0.0905
      7  CD        34.6540   47.5080    1.1900 C.2     9  GLN9        0.2608
      8  OE1       33.7420   46.7030    1.0430 O.2     9  GLN9       -0.2717
      9  NE2       34.5200   48.7980    0.9350 N.am    9  GLN9       -0.0878
     10  N         39.9720   50.3150    3.7770 N.3    11  GLU11      -0.1245
     11  CA        40.4140   51.3680    2.8650 C.3    11  GLU11       0.1567
     12  C         40.8830   52.5700    3.6740 C.2    11  GLU11       0.2260
     13  O         40.4330   52.7480    4.8150 O.2    11  GLU11      -0.2867
     14  CB        39.2670   51.7750    1.9420 C.3    11  GLU11       0.0388
     15  CG        37.9160   51.6670    2.5460 C.3    11  GLU11       0.1160
     16  CD        36.8390   51.9660    1.5600 C.2    11  GLU11       0.3649
     17  OE1       36.6570   53.1400    1.2400 O.co2  11  GLU11      -0.2457
     18  OE2       36.1550   51.0450    1.1090 O.co2  11  GLU11      -0.2457
     19  N         42.5730   50.4280   -0.9760 N.3    22  PHE22      -0.1241
     20  CA        41.3190   49.6970   -0.9290 C.3    22  PHE22       0.1605
     21  C         41.7700   48.2770   -0.9810 C.2    22  PHE22       0.2264
     22  O         42.5090   47.9300   -1.9020 O.2    22  PHE22      -0.2867
     23  CB        40.4370   49.9970   -2.1180 C.3    22  PHE22       0.0534
     24  CG        39.1920   49.2010   -2.1230 C.ar   22  PHE22      -0.0203
     25  CD1       39.2210   47.8560   -2.4950 C.ar   22  PHE22      -0.0042
     26  CD2       37.9990   49.7720   -1.7640 C.ar   22  PHE22      -0.0042
     27  CE1       38.1110   47.1040   -2.5210 C.ar   22  PHE22      -0.0003
     28  CE2       36.8460   49.0120   -1.7830 C.ar   22  PHE22      -0.0003
     29  CZ        36.9170   47.6710   -2.1690 C.ar   22  PHE22      -0.0000
     30  N         40.8360   43.8360    0.4470 N.3    24  PHE24      -0.1241
     31  CA        39.9970   42.8900    1.2180 C.3    24  PHE24       0.1605
     32  C         40.8940   41.9960    2.0290 C.2    24  PHE24       0.2264
     33  O         41.9440   41.5870    1.5670 O.2    24  PHE24      -0.2867
     34  CB        39.0990   42.0130    0.3980 C.3    24  PHE24       0.0534
     35  CG        37.7350   42.5580    0.2170 C.ar   24  PHE24      -0.0203
     36  CD1       37.5130   43.7240   -0.5160 C.ar   24  PHE24      -0.0042
     37  CD2       36.6620   41.8960    0.7170 C.ar   24  PHE24      -0.0042
     38  CE1       36.2120   44.2200   -0.7450 C.ar   24  PHE24      -0.0003
     39  CE2       35.3720   42.3740    0.4980 C.ar   24  PHE24      -0.0003
     40  CZ        35.1570   43.5510   -0.2470 C.ar   24  PHE24      -0.0000
     41  N         42.8340   40.6680   -2.1320 N.3    32  PHE32      -0.1241
     42  CA        43.2400   41.5350   -3.2270 C.3    32  PHE32       0.1605
     43  C         43.2450   42.9840   -2.7690 C.2    32  PHE32       0.2264
     44  O         42.7930   43.3100   -1.6780 O.2    32  PHE32      -0.2867
     45  CB        42.2800   41.4120   -4.4100 C.3    32  PHE32       0.0534
     46  CG        40.8870   41.9650   -4.1400 C.ar   32  PHE32      -0.0203
     47  CD1       40.5900   43.2900   -4.4020 C.ar   32  PHE32      -0.0042
     48  CD2       39.8850   41.1640   -3.6320 C.ar   32  PHE32      -0.0042
     49  CE1       39.3290   43.8010   -4.1620 C.ar   32  PHE32      -0.0003
     50  CE2       38.6190   41.6790   -3.3970 C.ar   32  PHE32      -0.0003
     51  CZ        38.3550   42.9940   -3.6650 C.ar   32  PHE32      -0.0000
     52  N         45.0970   40.3810   -7.2570 N.3    43  TRP43      -0.1241
     53  CA        44.8610   39.2980   -6.2900 C.3    43  TRP43       0.1605
     54  C         46.1510   38.8330   -5.6110 C.2    43  TRP43       0.2264
     55  O         47.1310   38.5570   -6.2850 O.2    43  TRP43      -0.2867
     56  CB        44.2480   38.0700   -7.0060 C.3    43  TRP43       0.0550
     57  CG        42.9500   38.3230   -7.7310 C.ar   43  TRP43       0.0003
     58  CD1       42.8240   38.7220   -9.0170 C.ar   43  TRP43       0.0946
     59  CD2       41.6300   38.3960   -7.1590 C.ar   43  TRP43       0.0152
     60  NE1       41.5190   39.0910   -9.2820 N.ar   43  TRP43      -0.2442
     61  CE2       40.7730   38.9000   -8.1510 C.ar   43  TRP43       0.0810
     62  CE3       41.1020   38.1060   -5.9100 C.ar   43  TRP43       0.0012
     63  CZ2       39.4190   39.1240   -7.9230 C.ar   43  TRP43       0.0191
     64  CZ3       39.7350   38.3300   -5.6850 C.ar   43  TRP43       0.0001
     65  CH2       38.9210   38.8320   -6.6850 C.ar   43  TRP43       0.0015
     66  N         38.5680   32.3490   -9.6660 N.3    51  PHE51      -0.1227
     67  CA        37.3180   32.0990   -8.9690 C.3    51  PHE51       0.1736
     68  C         36.4870   33.3310   -8.7070 C.2    51  PHE51       0.2595
     69  O         35.3320   33.2170   -8.2400 O.2    51  PHE51      -0.2718
     70  CB        37.5650   31.5050   -7.6000 C.3    51  PHE51       0.0547
     71  CG        38.3400   30.2650   -7.6020 C.ar   51  PHE51      -0.0202
     72  CD1       37.7390   29.0490   -7.9540 C.ar   51  PHE51      -0.0042
     73  CD2       39.6600   30.2910   -7.2080 C.ar   51  PHE51      -0.0042
     74  CE1       38.4580   27.8640   -7.9050 C.ar   51  PHE51      -0.0003
     75  CE2       40.3890   29.1360   -7.1510 C.ar   51  PHE51      -0.0003
     76  CZ        39.7890   27.9100   -7.4960 C.ar   51  PHE51      -0.0000
     77  N         37.0310   34.5150   -8.9210 N.am   52  ALA52      -0.1966
     78  CA        36.2100   35.6390   -8.5830 C.3    52  ALA52       0.1728
     79  C         36.6730   36.8590   -9.2850 C.2    52  ALA52       0.2617
     80  O         37.7760   36.8830   -9.8030 O.2    52  ALA52      -0.2715
     81  CB        36.2570   35.8280   -7.0830 C.3    52  ALA52       0.0334
     82  N         35.8330   37.8920   -9.3020 N.am   53  SER53      -0.1936
     83  CA        36.1950   39.1390   -9.9500 C.3    53  SER53       0.2055
     84  C         35.8130   40.3110   -9.0670 C.2    53  SER53       0.2643
     85  O         35.0090   40.1480   -8.1650 O.2    53  SER53      -0.2714
     86  CB        35.4670   39.2250  -11.2730 C.3    53  SER53       0.2130
     87  OG        34.0630   39.2210  -11.0480 O.3    53  SER53      -0.2179
     88  N         36.3660   41.4800   -9.3590 N.am   54  PHE54      -0.1959
     89  CA        36.0750   42.7000   -8.6380 C.3    54  PHE54       0.1771
     90  C         36.1090   43.8960   -9.6040 C.2    54  PHE54       0.2619
     91  O         36.9420   43.9410  -10.4830 O.2    54  PHE54      -0.2715
     92  CB        37.1030   42.9140   -7.5470 C.3    54  PHE54       0.0574
     93  CG        36.7530   44.0390   -6.6340 C.ar   54  PHE54      -0.0200
     94  CD1       35.5870   43.9740   -5.8810 C.ar   54  PHE54      -0.0042
     95  CD2       37.4950   45.2090   -6.6480 C.ar   54  PHE54      -0.0042
     96  CE1       35.1590   45.0550   -5.1820 C.ar   54  PHE54      -0.0003
     97  CE2       37.0860   46.2960   -5.9600 C.ar   54  PHE54      -0.0003
     98  CZ        35.9020   46.2260   -5.2230 C.ar   54  PHE54      -0.0000
     99  N         35.1810   44.8440   -9.5140 N.am   55  GLU55      -0.1977
    100  CA        35.2500   45.9960  -10.4160 C.3    55  GLU55       0.1602
    101  C         36.1530   47.0340   -9.8010 C.2    55  GLU55       0.2287
    102  O         35.7280   47.8580   -9.0010 O.2    55  GLU55      -0.2864
    103  CB        33.8630   46.5670  -10.7260 C.3    55  GLU55       0.0415
    104  CG        33.8730   47.7500  -11.7580 C.3    55  GLU55       0.1163
    105  CD        34.7370   47.4790  -13.0020 C.2    55  GLU55       0.3649
    106  OE1       34.3200   46.6430  -13.8720 O.co2  55  GLU55      -0.2457
    107  OE2       35.8470   48.0870  -13.0870 O.co2  55  GLU55      -0.2457
    108  N         35.4030   50.9310   -8.8680 N.3    58  GLY58      -0.1210
    109  CA        34.5650   51.3530   -7.7580 C.3    58  GLY58       0.1956
    110  C         35.4060   51.7930   -6.5600 C.2    58  GLY58       0.2611
    111  O         35.0950   52.7970   -5.9020 O.2    58  GLY58      -0.2717
    112  N         36.5060   51.0660   -6.3090 N.am   59  ALA59      -0.1979
    113  CA        37.4170   51.3590   -5.2160 C.3    59  ALA59       0.1597
    114  C         37.8030   52.8080   -5.2710 C.2    59  ALA59       0.2287
    115  O         37.9220   53.4530   -4.2330 O.2    59  ALA59      -0.2864
    116  CB        38.6130   50.5230   -5.3130 C.3    59  ALA59       0.0319
    117  N         35.0990   55.1040   -3.8400 N.3    62  ASN62      -0.1240
    118  CA        35.2530   55.0630   -2.3970 C.3    62  ASN62       0.1653
    119  C         36.3770   55.9640   -1.9080 C.2    62  ASN62       0.2266
    120  O         36.1370   56.8250   -1.0610 O.2    62  ASN62      -0.2867
    121  CB        35.4990   53.6250   -1.9320 C.3    62  ASN62       0.1155
    122  CG        34.2240   52.8610   -1.7180 C.2    62  ASN62       0.2627
    123  OD1       33.1780   53.2430   -2.2220 O.2    62  ASN62      -0.2716
    124  ND2       34.3080   51.7570   -0.9930 N.am   62  ASN62      -0.0877
    125  N         35.4010   59.4440   -1.6570 N.3    65  VAL65      -0.1231
    126  CA        34.5990   59.7870   -0.4870 C.3    65  VAL65       0.1692
    127  C         35.4450   59.9350    0.7560 C.2    65  VAL65       0.2592
    128  O         35.3430   60.9440    1.4420 O.2    65  VAL65      -0.2718
    129  CB        33.5610   58.7450   -0.2330 C.3    65  VAL65       0.0266
    130  CG1       32.7490   59.1130    0.9930 C.3    65  VAL65       0.0020
    131  CG2       32.6900   58.6350   -1.4230 C.3    65  VAL65       0.0020
    132  N         36.2940   58.9290    1.0090 N.am   66  ASP66      -0.1974
    133  CA        37.2230   58.8810    2.1470 C.3    66  ASP66       0.1709
    134  C         38.0570   60.1560    2.2250 C.2    66  ASP66       0.2293
    135  O         38.2700   60.7020    3.3170 O.2    66  ASP66      -0.2864
    136  CB        38.1850   57.6780    2.0500 C.3    66  ASP66       0.1436
    137  CG        37.4650   56.3520    1.8610 C.2    66  ASP66       0.3671
    138  OD1       36.2430   56.2780    2.0730 O.co2  66  ASP66      -0.2456
    139  OD2       38.1050   55.3720    1.4640 O.co2  66  ASP66      -0.2456
    140  N         37.2180   63.0820    1.0150 N.3    68  ALA68      -0.1231
    141  CA        36.3030   64.1480    1.3520 C.3    68  ALA68       0.1694
    142  C         36.1080   64.1560    2.8460 C.2    68  ALA68       0.2592
    143  O         36.1810   65.1950    3.4800 O.2    68  ALA68      -0.2718
    144  CB        35.0100   63.9010    0.6940 C.3    68  ALA68       0.0304
    145  N         35.8490   62.9850    3.4080 N.am   69  ASN69      -0.1974
    146  CA        35.6420   62.8700    4.8320 C.3    69  ASN69       0.1688
    147  C         36.8790   63.1380    5.6310 C.2    69  ASN69       0.2292
    148  O         36.7940   63.5280    6.7910 O.2    69  ASN69      -0.2864
    149  CB        35.1100   61.5120    5.1790 C.3    69  ASN69       0.1181
    150  CG        33.8170   61.2320    4.5180 C.2    69  ASN69       0.2629
    151  OD1       33.0420   62.2640    4.3130 O.2    69  ASN69      -0.2716
    152  ND2       33.4920   60.0970    4.2090 N.am   69  ASN69      -0.0877
    153  N         36.9230   66.8090    6.1130 N.3    72  ILE72      -0.1231
    154  CA        35.9310   67.2180    7.1200 C.3    72  ILE72       0.1692
    155  C         36.3060   66.8490    8.5580 C.2    72  ILE72       0.2591
    156  O         36.0760   67.6450    9.4810 O.2    72  ILE72      -0.2718
    157  CB        34.5400   66.6420    6.8060 C.3    72  ILE72       0.0266
    158  CG1       33.9390   67.3600    5.5880 C.3    72  ILE72       0.0019
    159  CG2       33.6630   66.7000    8.0320 C.3    72  ILE72       0.0020
    160  CD1       32.9450   66.5110    4.7190 C.3    72  ILE72       0.0001
    161  N         36.8800   65.6620    8.7520 N.am   73  MET73      -0.1979
    162  CA        37.2890   65.2230   10.0750 C.3    73  MET73       0.1605
    163  C         38.4760   66.0130   10.5610 C.2    73  MET73       0.2287
    164  O         38.5260   66.4320   11.7240 O.2    73  MET73      -0.2864
    165  CB        37.6230   63.7480   10.0400 C.3    73  MET73       0.0413
    166  CG        36.4040   62.9190   10.2260 C.3    73  MET73       0.0598
    167  SD        35.8470   63.4250   11.8220 S.3    73  MET73      -0.1393
    168  CE        35.2660   61.8410   12.6050 C.3    73  MET73       0.0692
    169  N         37.1710   69.2510   11.7250 N.3    76  ARG76      -0.1245
    170  CA        36.4480   69.2260   12.9940 C.3    76  ARG76       0.1563
    171  C         37.2520   68.8010   14.1830 C.2    76  ARG76       0.2260
    172  O         36.8690   69.0500   15.3060 O.2    76  ARG76      -0.2867
    173  CB        35.1300   68.4850   12.9270 C.3    76  ARG76       0.0307
    174  CG        35.1140   67.0380   13.2170 C.3    76  ARG76       0.0489
    175  CD        33.7080   66.7740   13.6400 C.3    76  ARG76       0.2205
    176  NE        33.0660   65.5920   13.0690 N.pl3  76  ARG76      -0.0865
    177  CZ        32.2840   65.5810   11.9810 C.cat  76  ARG76       0.5346
    178  NH1       32.0420   66.6830   11.2820 N.pl3  76  ARG76       0.1354
    179  NH2       31.6250   64.4810   11.6460 N.pl3  76  ARG76       0.1354
@<TRIPOS>BOND
     1   106   105   ar
     2   107   105   ar
     3   105   104    1
     4   104   103    1
     5    86    87    1
     6    86    83    1
     7   103   100    1
     8    91    90    2
     9   100   101    1
    10   100    99    1
    11    83    82    1
    12    83    84    1
    13    80    79    2
    14   101   102    2
    15    66    67    1
    16    90    99   am
    17    90    89    1
    18    88    84   am
    19    88    89    1
    20    82    79   am
    21    79    78    1
    22    60    58   ar
    23    60    61   ar
    24    84    85    2
    25    58    57   ar
    26    67    68    1
    27    67    70    1
    28    77    68   am
    29    77    78    1
    30   108   109    1
    31    68    69    2
    32    89    92    1
    33    78    81    1
    34    61    63   ar
    35    61    59   ar
    36    72    74   ar
    37    72    71   ar
    38    63    65   ar
    39    74    76   ar
    40   109   110    1
    41    57    59   ar
    42    57    56    1
    43    71    70    1
    44    71    73   ar
    45    92    93    1
    46    76    75   ar
    47    52    53    1
    48    73    75   ar
    49    59    62   ar
    50    56    53    1
    51    65    64   ar
    52    95    93   ar
    53    95    97   ar
    54    93    94   ar
    55   110   112   am
    56   110   111    2
    57   112   113    1
    58    53    54    1
    59    55    54    2
    60    97    98   ar
    61    62    64   ar
    62    94    96   ar
    63   116   113    1
    64   114   113    1
    65   114   115    2
    66    98    96   ar
    67    45    46    1
    68    45    42    1
    69    47    49   ar
    70    47    46   ar
    71    49    51   ar
    72    46    48   ar
    73   117   118    1
    74    51    50   ar
    75    48    50   ar
    76    42    43    1
    77    42    41    1
    78    43    44    2
    79    27    25   ar
    80    27    29   ar
    81    25    24   ar
    82   118   121    1
    83   118   119    1
    84   123   122    2
    85    29    28   ar
    86    24    23    1
    87    24    26   ar
    88    23    20    1
    89   121   122    1
    90   119   120    2
    91    22    21    2
    92    28    26   ar
    93   122   124   am
    94   125   126    1
    95   131   129    1
    96    21    20    1
    97    19    20    1
    98    38    36   ar
    99    38    40   ar
   100    36    35   ar
   101   126   129    1
   102   126   127    1
   103    40    39   ar
   104   129   130    1
   105    35    34    1
   106    35    37   ar
   107    34    31    1
   108    30    31    1
   109    39    37   ar
   110   144   141    1
   111   127   132   am
   112   127   128    2
   113     9     7   am
   114   132   133    1
   115   140   141    1
   116     8     7    2
   117    18    16   ar
   118     7     6    1
   119    31    32    1
   120    17    16   ar
   121   141   142    1
   122   139   137   ar
   123    16    15    1
   124    33    32    2
   125     6     5    1
   126   137   136    1
   127   137   138   ar
   128    14    15    1
   129    14    11    1
   130   136   133    1
   131   133   134    1
   132   134   135    2
   133     5     2    1
   134   142   145   am
   135   142   143    2
   136    11    12    1
   137    11    10    1
   138     2     3    1
   139     2     1    1
   140   145   146    1
   141    12    13    2
   142     3     4    2
   143   152   150   am
   144   151   150    2
   145   150   149    1
   146   160   158    1
   147   146   149    1
   148   146   147    1
   149   158   157    1
   150   147   148    2
   151   153   154    1
   152   157   154    1
   153   157   159    1
   154   154   155    1
   155   155   161   am
   156   155   156    2
   157   161   162    1
   158   165   162    1
   159   165   166    1
   160   162   163    1
   161   166   167    1
   162   163   164    2
   163   178   177    1
   164   179   177    1
   165   169   170    1
   166   167   168    1
   167   177   176    2
   168   173   170    1
   169   173   174    1
   170   170   171    1
   171   176   175    1
   172   174   175    1
   173   171   172    2
