@<TRIPOS>MOLECULE
tmp/1sehA00.pdb
 95 89 0 0 0
SMALL
GASTEIGER

@<TRIPOS>ATOM
      1  N         -0.5680   35.8360    6.7260 N.3    68  MET68      -0.1245
      2  CA         0.2970   35.2170    5.7290 C.3    68  MET68       0.1570
      3  C          0.7850   36.3020    4.8070 C.2    68  MET68       0.2261
      4  O         -0.0050   37.1290    4.3370 O.2    68  MET68      -0.2867
      5  CB        -0.4500   34.1410    4.9400 C.3    68  MET68       0.0387
      6  CG        -0.9040   32.9890    5.8360 C.3    68  MET68       0.0595
      7  SD        -1.3930   31.4460    5.0220 S.3    68  MET68      -0.1393
      8  CE        -2.1990   32.0360    3.8600 C.3    68  MET68       0.0692
      9  N          1.2060   36.7690   -2.9700 N.3    82  LEU82      -0.1245
     10  CA        -0.0950   36.2060   -2.6540 C.3    82  LEU82       0.1561
     11  C         -1.1670   36.9120   -3.4450 C.2    82  LEU82       0.2260
     12  O         -1.1540   38.1380   -3.5880 O.2    82  LEU82      -0.2867
     13  CB        -0.3760   36.3740   -1.1590 C.3    82  LEU82       0.0270
     14  CG         0.6730   35.7640   -0.2350 C.3    82  LEU82       0.0019
     15  CD1        0.2230   35.9510    1.2120 C.3    82  LEU82       0.0001
     16  CD2        0.9300   34.3140   -0.4970 C.3    82  LEU82       0.0001
     17  N         -4.2630   37.3010   -2.6870 N.3    84  ASN84      -0.1240
     18  CA        -5.0250   38.1280   -1.7610 C.3    84  ASN84       0.1653
     19  C         -4.1380   39.1090   -0.9980 C.2    84  ASN84       0.2266
     20  O         -4.6260   39.8220   -0.1220 O.2    84  ASN84      -0.2867
     21  CB        -5.8740   37.2750   -0.8010 C.3    84  ASN84       0.1155
     22  CG        -5.0820   36.2470   -0.0220 C.2    84  ASN84       0.2627
     23  OD1       -4.0100   35.8200   -0.4190 O.2    84  ASN84      -0.2716
     24  ND2       -5.6230   35.8380    1.1170 N.am   84  ASN84      -0.0877
     25  N         -2.8840   37.2040    3.7600 N.3    87  GLY87      -0.1210
     26  CA        -3.8800   36.2350    4.1750 C.3    87  GLY87       0.1956
     27  C         -4.1060   36.2840    5.6650 C.2    87  GLY87       0.2612
     28  O         -3.2100   35.9950    6.4280 O.2    87  GLY87      -0.2717
     29  N         -5.3190   36.6150    6.0670 N.am   88  LEU88      -0.1965
     30  CA        -5.6810   36.7570    7.4630 C.3    88  LEU88       0.1728
     31  C         -6.2980   35.4720    7.9730 C.2    88  LEU88       0.2616
     32  O         -7.2780   34.9620    7.3980 O.2    88  LEU88      -0.2715
     33  CB        -6.6580   37.9110    7.6040 C.3    88  LEU88       0.0311
     34  CG        -7.1600   38.1960    9.0140 C.3    88  LEU88       0.0022
     35  CD1       -6.0310   38.6640    9.9280 C.3    88  LEU88       0.0001
     36  CD2       -8.2750   39.2320    8.9320 C.3    88  LEU88       0.0001
     37  N         -5.7050   34.9150    9.0140 N.am   89  ILE89      -0.1963
     38  CA        -6.1920   33.6750    9.5920 C.3    89  ILE89       0.1727
     39  C         -6.8810   33.9770   10.9220 C.2    89  ILE89       0.2616
     40  O         -6.2530   34.4690   11.8550 O.2    89  ILE89      -0.2715
     41  CB        -5.0390   32.6840    9.8260 C.3    89  ILE89       0.0290
     42  CG1       -4.1150   32.5330    8.5910 C.3    89  ILE89       0.0022
     43  CG2       -5.5800   31.3250   10.2760 C.3    89  ILE89       0.0023
     44  CD1       -4.7610   32.1800    7.3320 C.3    89  ILE89       0.0001
     45  N         -8.1750   33.6780   10.9910 N.am   90  ASP90      -0.1971
     46  CA        -8.9620   33.9360   12.1810 C.3    90  ASP90       0.1709
     47  C         -8.6720   32.9070   13.2540 C.2    90  ASP90       0.2293
     48  O         -8.3490   31.7470   12.9700 O.2    90  ASP90      -0.2864
     49  CB       -10.4310   33.8580   11.8200 C.3    90  ASP90       0.1436
     50  CG       -10.8020   34.8430   10.7610 C.2    90  ASP90       0.3671
     51  OD1      -10.7160   36.0510   11.0330 O.co2  90  ASP90      -0.2456
     52  OD2      -11.1270   34.5080    9.5950 O.co2  90  ASP90      -0.2456
     53  N        -10.6930   29.7180   12.8110 N.3    93  TYR93      -0.1241
     54  CA       -10.5540   28.9330   11.5900 C.3    93  TYR93       0.1605
     55  C         -9.8160   27.6280   11.8750 C.2    93  TYR93       0.2264
     56  O         -8.7610   27.6410   12.4780 O.2    93  TYR93      -0.2867
     57  CB        -9.7720   29.6950   10.5500 C.3    93  TYR93       0.0534
     58  CG        -9.6140   28.9270    9.2610 C.ar   93  TYR93      -0.0201
     59  CD1       -8.3720   28.4780    8.8490 C.ar   93  TYR93      -0.0009
     60  CD2      -10.7110   28.6700    8.4560 C.ar   93  TYR93      -0.0009
     61  CE1       -8.2220   27.7980    7.6570 C.ar   93  TYR93       0.0417
     62  CE2      -10.5740   27.9850    7.2580 C.ar   93  TYR93       0.0417
     63  CZ        -9.3200   27.5590    6.8710 C.ar   93  TYR93       0.1957
     64  OH        -9.1830   26.8850    5.6760 O.3    93  TYR93      -0.2866
     65  N         -7.8150   23.7190    6.4860 N.3    96  GLN96      -0.1231
     66  CA        -6.4780   23.6900    5.9460 C.3    96  GLN96       0.1698
     67  C         -6.0520   25.1160    5.5930 C.2    96  GLN96       0.2592
     68  O         -6.8210   25.8820    5.0100 O.2    96  GLN96      -0.2718
     69  CB        -6.4230   22.7970    4.7040 C.3    96  GLN96       0.0381
     70  CG        -5.0250   22.6750    4.1290 C.3    96  GLN96       0.0905
     71  CD        -4.8680   21.6700    3.0010 C.2    96  GLN96       0.2608
     72  OE1       -3.7490   21.2670    2.7120 O.2    96  GLN96      -0.2717
     73  NE2       -5.9570   21.2650    2.3710 N.am   96  GLN96      -0.0878
     74  N         -4.8130   25.4630    5.9390 N.am   97  LEU97      -0.1966
     75  CA        -4.2330   26.7150    5.4760 C.3    97  LEU97       0.1728
     76  C         -3.9060   26.5850    4.0030 C.2    97  LEU97       0.2616
     77  O         -3.1970   25.6620    3.5960 O.2    97  LEU97      -0.2715
     78  CB        -2.9720   27.0460    6.2550 C.3    97  LEU97       0.0311
     79  CG        -3.1600   27.3480    7.7410 C.3    97  LEU97       0.0022
     80  CD1       -1.8060   27.6620    8.3380 C.3    97  LEU97       0.0001
     81  CD2       -4.1210   28.4900    7.9650 C.3    97  LEU97       0.0001
     82  N         -4.4710   27.4770    3.2140 N.am   98  MET98      -0.1977
     83  CA        -4.3010   27.4890    1.7700 C.3    98  MET98       0.1605
     84  C         -3.6200   28.7690    1.3720 C.2    98  MET98       0.2287
     85  O         -3.8850   29.8180    1.9390 O.2    98  MET98      -0.2864
     86  CB        -5.6470   27.3980    1.0550 C.3    98  MET98       0.0413
     87  CG        -6.5250   26.2350    1.4980 C.3    98  MET98       0.0598
     88  SD        -5.8310   24.6470    1.1540 S.3    98  MET98      -0.1393
     89  CE        -5.9270   24.5850   -0.5740 C.3    98  MET98       0.0692
     90  N         -2.8390   31.4440   -1.6440 N.3   100  SER100     -0.1217
     91  CA        -3.1220   31.9710   -2.9570 C.3   100  SER100      0.1889
     92  C         -1.8400   32.5200   -3.5280 C.2   100  SER100      0.2288
     93  O         -1.3820   33.5780   -3.1020 O.2   100  SER100     -0.2866
     94  CB        -4.1580   33.0750   -2.8620 C.3   100  SER100      0.2089
     95  OG        -4.3240   33.7180   -4.0980 O.3   100  SER100     -0.2183
@<TRIPOS>BOND
     1    95    94    1
     2    12    11    2
     3    92    93    2
     4    92    91    1
     5    11    10    1
     6     9    10    1
     7    91    94    1
     8    91    90    1
     9    17    18    1
    10    10    13    1
    11    18    19    1
    12    18    21    1
    13    13    14    1
    14    19    20    2
    15    21    22    1
    16    89    88    1
    17    16    14    1
    18    23    22    2
    19    14    15    1
    20    22    24   am
    21    86    87    1
    22    86    83    1
    23    88    87    1
    24    84    83    1
    25    84    85    2
    26    83    82    1
    27    73    71   am
    28    72    71    2
    29    71    70    1
    30    82    76   am
    31    77    76    2
    32    25    26    1
    33     8     7    1
    34    76    75    1
    35    70    69    1
    36    26    27    1
    37     4     3    2
    38    69    66    1
    39     3     2    1
    40     5     2    1
    41     5     6    1
    42    68    67    2
    43     7     6    1
    44    75    74    1
    45    75    78    1
    46    67    74   am
    47    67    66    1
    48    27    29   am
    49    27    28    2
    50    64    63    1
    51     2     1    1
    52    66    65    1
    53    29    30    1
    54    78    79    1
    55    63    62   ar
    56    63    61   ar
    57    62    60   ar
    58    44    42    1
    59    32    31    2
    60    30    33    1
    61    30    31    1
    62    33    34    1
    63    61    59   ar
    64    79    81    1
    65    79    80    1
    66    31    37   am
    67    60    58   ar
    68    42    41    1
    69    59    58   ar
    70    36    34    1
    71    34    35    1
    72    37    38    1
    73    58    57    1
    74    38    41    1
    75    38    39    1
    76    52    50   ar
    77    41    43    1
    78    57    54    1
    79    50    51   ar
    80    50    49    1
    81    39    45   am
    82    39    40    2
    83    45    46    1
    84    54    55    1
    85    54    53    1
    86    49    46    1
    87    55    56    2
    88    46    47    1
    89    48    47    2
