@<TRIPOS>MOLECULE
tmp/1sejC00.pdb
 172 168 0 0 0
SMALL
GASTEIGER

@<TRIPOS>ATOM
      1  N        -76.7830  113.8290   76.3680 N.3   254  ASN254     -0.1225
      2  CA       -78.2460  113.8910   76.3380 C.3   254  ASN254      0.1785
      3  C        -78.8530  112.6640   77.0190 C.2   254  ASN254      0.2597
      4  O        -78.1200  111.7730   77.4450 O.2   254  ASN254     -0.2718
      5  CB       -78.7560  113.9890   74.8980 C.3   254  ASN254      0.1169
      6  CG       -78.1310  112.9520   73.9850 C.2   254  ASN254      0.2627
      7  OD1      -77.0650  113.1800   73.4060 O.2   254  ASN254     -0.2716
      8  ND2      -78.7850  111.8020   73.8580 N.am  254  ASN254     -0.0877
      9  N        -80.1820  112.6200   77.1170 N.am  255  ARG255     -0.1966
     10  CA       -80.8640  111.4970   77.7650 C.3   255  ARG255      0.1729
     11  C        -80.4010  110.1050   77.2990 C.2   255  ARG255      0.2616
     12  O        -80.3460  109.1680   78.1010 O.2   255  ARG255     -0.2715
     13  CB       -82.3820  111.6200   77.6030 C.3   255  ARG255      0.0348
     14  CG       -82.8590  111.6480   76.1860 C.3   255  ARG255      0.0492
     15  CD       -84.2710  111.1040   76.1150 C.3   255  ARG255      0.2205
     16  NE       -84.5060  110.6450   74.7740 N.pl3 255  ARG255     -0.0865
     17  CZ       -84.6470  109.4060   74.3160 C.cat 255  ARG255      0.5346
     18  NH1      -84.8300  109.2830   73.0140 N.pl3 255  ARG255      0.1354
     19  NH2      -84.6460  108.3230   75.0810 N.pl3 255  ARG255      0.1354
     20  N        -80.0750  109.9580   76.0150 N.am  256  THR256     -0.1951
     21  CA       -79.5940  108.6690   75.5190 C.3   256  THR256      0.1897
     22  C        -78.1260  108.5920   75.9180 C.2   256  THR256      0.2313
     23  O        -77.5270  109.5970   76.3020 O.2   256  THR256     -0.2863
     24  CB       -79.6970  108.5520   73.9780 C.3   256  THR256      0.1794
     25  OG1      -78.5060  109.0720   73.3700 O.3   256  THR256     -0.2208
     26  CG2      -80.9120  109.3220   73.4620 C.3   256  THR256      0.0378
     27  N        -95.8360  104.6730   59.0340 N.3   292  GLU292     -0.1245
     28  CA       -95.8550  105.4080   60.2920 C.3   292  GLU292      0.1567
     29  C        -96.8140  106.5860   60.1660 C.2   292  GLU292      0.2260
     30  O        -97.4540  106.9750   61.1320 O.2   292  GLU292     -0.2867
     31  CB       -94.4640  105.9320   60.6560 C.3   292  GLU292      0.0388
     32  CG       -94.4760  106.8180   61.9040 C.3   292  GLU292      0.1160
     33  CD       -93.1810  107.5860   62.1300 C.2   292  GLU292      0.3649
     34  OE1      -92.7040  108.2760   61.2020 O.co2 292  GLU292     -0.2457
     35  OE2      -92.6480  107.5060   63.2530 O.co2 292  GLU292     -0.2457
     36  N        -90.3200  102.4470   66.5540 N.3   314  TRP314     -0.1241
     37  CA       -90.9060  102.6850   67.8640 C.3   314  TRP314      0.1605
     38  C        -90.7660  101.5330   68.8530 C.2   314  TRP314      0.2264
     39  O        -91.3410  101.5700   69.9380 O.2   314  TRP314     -0.2867
     40  CB       -92.3730  103.0800   67.7270 C.3   314  TRP314      0.0550
     41  CG       -92.5600  104.4540   67.1520 C.ar  314  TRP314      0.0003
     42  CD1      -92.7550  104.7800   65.8400 C.ar  314  TRP314      0.0946
     43  CD2      -92.5800  105.6890   67.8770 C.ar  314  TRP314      0.0152
     44  NE1      -92.9030  106.1380   65.7040 N.ar  314  TRP314     -0.2442
     45  CE2      -92.7980  106.7200   66.9400 C.ar  314  TRP314      0.0810
     46  CE3      -92.4340  106.0260   69.2310 C.ar  314  TRP314      0.0012
     47  CZ2      -92.8770  108.0630   67.3150 C.ar  314  TRP314      0.0191
     48  CZ3      -92.5130  107.3610   69.6000 C.ar  314  TRP314      0.0001
     49  CH2      -92.7330  108.3600   68.6470 C.ar  314  TRP314      0.0015
     50  N        -98.0590  111.3770   69.1480 N.3   340  TYR340     -0.1241
     51  CA       -98.5710  111.9490   67.8970 C.3   340  TYR340      0.1605
     52  C        -99.7580  111.1040   67.4540 C.2   340  TYR340      0.2264
     53  O        -99.8160  109.8960   67.7230 O.2   340  TYR340     -0.2867
     54  CB       -97.5480  111.8450   66.7730 C.3   340  TYR340      0.0534
     55  CG       -96.1390  112.2890   67.0650 C.ar  340  TYR340     -0.0201
     56  CD1      -95.7650  113.6290   66.9540 C.ar  340  TYR340     -0.0009
     57  CD2      -95.1510  111.3500   67.3490 C.ar  340  TYR340     -0.0009
     58  CE1      -94.4320  114.0190   67.1060 C.ar  340  TYR340      0.0417
     59  CE2      -93.8250  111.7260   67.5040 C.ar  340  TYR340      0.0417
     60  CZ       -93.4690  113.0560   67.3790 C.ar  340  TYR340      0.1957
     61  OH       -92.1460  113.3990   67.5110 O.3   340  TYR340     -0.2866
     62  N        -92.4300  109.1370   74.4830 N.3   397  LEU397     -0.1231
     63  CA       -91.4590  110.0930   73.9870 C.3   397  LEU397      0.1678
     64  C        -92.1840  111.3710   73.6160 C.2   397  LEU397      0.2434
     65  O        -93.1930  111.3350   72.9150 O.2   397  LEU397     -0.2733
     66  CB       -90.7710  109.5180   72.7590 C.3   397  LEU397      0.0284
     67  CG       -89.4830  110.1800   72.2890 C.3   397  LEU397      0.0019
     68  CD1      -88.4580  110.1460   73.4090 C.3   397  LEU397      0.0001
     69  CD2      -88.9610  109.4460   71.0650 C.3   397  LEU397      0.0001
     70  N        -91.6890  112.5240   74.0920 N.am  398  PRO398     -0.2729
     71  CA       -92.3250  113.8120   73.7830 C.3   398  PRO398      0.1401
     72  C        -92.2440  114.0860   72.2840 C.2   398  PRO398      0.2269
     73  O        -91.3010  113.6740   71.6140 O.2   398  PRO398     -0.2865
     74  CB       -91.5070  114.8040   74.5980 C.3   398  PRO398      0.0296
     75  CG       -91.0020  113.9710   75.7390 C.3   398  PRO398      0.0237
     76  CD       -90.5920  112.7000   75.0530 C.3   398  PRO398      0.0939
     77  N        -91.3930  115.3120   68.7240 N.3   400  CYS400     -0.1221
     78  CA       -90.2330  115.9650   68.1420 C.3   400  CYS400      0.1808
     79  C        -90.7470  116.8840   67.0570 C.2   400  CYS400      0.2601
     80  O        -90.3930  118.0570   67.0380 O.2   400  CYS400     -0.2717
     81  CB       -89.2590  114.9480   67.5940 C.3   400  CYS400      0.0970
     82  SG       -88.2760  114.2660   68.9470 S.3   400  CYS400     -0.0800
     83  N        -91.5770  116.3660   66.1470 N.am  401  HIS401     -0.1975
     84  CA       -92.1780  117.2440   65.1450 C.3   401  HIS401      0.1656
     85  C        -93.3680  117.8270   65.8820 C.2   401  HIS401      0.2291
     86  O        -94.5060  117.3750   65.7640 O.2   401  HIS401     -0.2864
     87  CB       -92.6040  116.5160   63.8520 C.3   401  HIS401      0.0771
     88  CG       -93.1270  115.1260   64.0410 C.ar  401  HIS401      0.0820
     89  ND1      -94.4300  114.7850   63.7560 N.ar  401  HIS401     -0.2267
     90  CD2      -92.4960  113.9710   64.3510 C.ar  401  HIS401      0.1154
     91  CE1      -94.5770  113.4780   63.8750 C.ar  401  HIS401      0.1986
     92  NE2      -93.4180  112.9600   64.2340 N.ar  401  HIS401     -0.2212
     93  N        -89.5580  121.5000   64.4690 N.3   420  GLN420     -0.1231
     94  CA       -89.1050  120.2830   65.1210 C.3   420  GLN420      0.1698
     95  C        -88.1400  120.6660   66.2510 C.2   420  GLN420      0.2592
     96  O        -87.0560  121.1920   65.9940 O.2   420  GLN420     -0.2718
     97  CB       -88.4150  119.3910   64.0890 C.3   420  GLN420      0.0381
     98  CG       -88.1640  117.9880   64.5590 C.3   420  GLN420      0.0905
     99  CD       -87.7820  117.0700   63.4270 C.2   420  GLN420      0.2608
    100  OE1      -87.6760  115.8600   63.6070 O.2   420  GLN420     -0.2717
    101  NE2      -87.5710  117.6400   62.2470 N.am  420  GLN420     -0.0878
    102  N        -88.5380  120.4080   67.4960 N.am  421  ARG421     -0.1966
    103  CA       -87.7200  120.7570   68.6530 C.3   421  ARG421      0.1729
    104  C        -86.3900  120.0080   68.7130 C.2   421  ARG421      0.2617
    105  O        -85.3720  120.5730   69.1090 O.2   421  ARG421     -0.2715
    106  CB       -88.5010  120.5060   69.9440 C.3   421  ARG421      0.0348
    107  CG       -88.6850  119.0450   70.2630 C.3   421  ARG421      0.0492
    108  CD       -89.3470  118.8440   71.6030 C.3   421  ARG421      0.2205
    109  NE       -89.4900  117.4280   71.9080 N.pl3 421  ARG421     -0.0865
    110  CZ       -88.4660  116.6120   72.1170 C.cat 421  ARG421      0.5346
    111  NH1      -87.2310  117.0860   72.0600 N.pl3 421  ARG421      0.1354
    112  NH2      -88.6700  115.3240   72.3610 N.pl3 421  ARG421      0.1354
    113  N        -86.4070  118.7360   68.3320 N.am  422  SER422     -0.1936
    114  CA       -85.2100  117.9030   68.3470 C.3   422  SER422      0.2055
    115  C        -85.1630  117.1280   67.0300 C.2   422  SER422      0.2643
    116  O        -86.1850  116.6040   66.5670 O.2   422  SER422     -0.2714
    117  CB       -85.2620  116.9410   69.5350 C.3   422  SER422      0.2130
    118  OG       -84.0740  116.1760   69.6340 O.3   422  SER422     -0.2179
    119  N        -83.9790  117.0470   66.4300 N.am  423  CYS423     -0.1953
    120  CA       -83.8380  116.3830   65.1440 C.3   423  CYS423      0.1843
    121  C        -82.5420  115.6020   64.9820 C.2   423  CYS423      0.2625
    122  O        -81.4530  116.1750   64.9860 O.2   423  CYS423     -0.2714
    123  CB       -83.9510  117.4370   64.0340 C.3   423  CYS423      0.0997
    124  SG       -83.8970  116.8360   62.3360 S.3   423  CYS423     -0.0797
    125  N        -82.6750  114.2850   64.8420 N.am  424  ASP424     -0.1971
    126  CA       -81.5360  113.4030   64.6360 C.3   424  ASP424      0.1709
    127  C        -81.2470  113.4560   63.1320 C.2   424  ASP424      0.2293
    128  O        -81.8540  112.7230   62.3480 O.2   424  ASP424     -0.2864
    129  CB       -81.9030  111.9880   65.0720 C.3   424  ASP424      0.1436
    130  CG       -80.8200  110.9810   64.7620 C.2   424  ASP424      0.3671
    131  OD1      -80.8970  109.8490   65.2880 O.co2 424  ASP424     -0.2456
    132  OD2      -79.8970  111.3110   63.9880 O.co2 424  ASP424     -0.2456
    133  N        -83.2360  110.1340   61.8600 N.3   428  GLY428     -0.1210
    134  CA       -84.6020  110.5910   61.6600 C.3   428  GLY428      0.1956
    135  C        -84.9100  111.6250   60.5900 C.2   428  GLY428      0.2612
    136  O        -85.7890  111.4110   59.7600 O.2   428  GLY428     -0.2717
    137  N        -84.1980  112.7450   60.6020 N.am  429  SER429     -0.1952
    138  CA       -84.4390  113.8090   59.6380 C.3   429  SER429      0.1924
    139  C        -84.8080  113.3840   58.2130 C.2   429  SER429      0.2314
    140  O        -85.7920  113.8740   57.6650 O.2   429  SER429     -0.2863
    141  CB       -83.2440  114.7530   59.5980 C.3   429  SER429      0.2116
    142  OG       -83.5630  115.9070   58.8440 O.3   429  SER429     -0.2180
    143  N        -88.2850  112.4120   58.3940 N.3   432  ASN432     -0.1240
    144  CA       -89.2160  113.4940   58.6910 C.3   432  ASN432      0.1653
    145  C        -89.5330  114.3020   57.4440 C.2   432  ASN432      0.2266
    146  O        -90.6870  114.6640   57.1940 O.2   432  ASN432     -0.2867
    147  CB       -88.6360  114.4390   59.7350 C.3   432  ASN432      0.1155
    148  CG       -88.6160  113.8360   61.1090 C.2   432  ASN432      0.2627
    149  OD1      -87.6360  113.2020   61.5170 O.2   432  ASN432     -0.2716
    150  ND2      -89.7120  114.0150   61.8380 N.am  432  ASN432     -0.0877
    151  N        -78.9230  118.0220   65.6030 N.3   462  HIS462     -0.1241
    152  CA       -77.7320  117.3100   66.0230 C.3   462  HIS462      0.1621
    153  C        -77.3730  116.0450   65.2550 C.2   462  HIS462      0.2264
    154  O        -78.1840  115.4860   64.5180 O.2   462  HIS462     -0.2867
    155  CB       -77.8790  116.9380   67.4880 C.3   462  HIS462      0.0745
    156  CG       -79.1320  116.1730   67.7830 C.ar  462  HIS462      0.0817
    157  ND1      -80.3340  116.7890   68.0520 N.ar  462  HIS462     -0.2268
    158  CD2      -79.3720  114.8390   67.8300 C.ar  462  HIS462      0.1154
    159  CE1      -81.2600  115.8690   68.2580 C.ar  462  HIS462      0.1986
    160  NE2      -80.7030  114.6780   68.1290 N.ar  462  HIS462     -0.2212
    161  N        -75.5360  112.2800   66.1100 N.3   464  TYR464     -0.1241
    162  CA       -75.0440  111.3860   67.1490 C.3   464  TYR464      0.1605
    163  C        -73.6270  110.9810   66.7530 C.2   464  TYR464      0.2264
    164  O        -73.3670  110.6790   65.5940 O.2   464  TYR464     -0.2867
    165  CB       -75.9610  110.1710   67.2770 C.3   464  TYR464      0.0534
    166  CG       -77.2170  110.4720   68.0560 C.ar  464  TYR464     -0.0201
    167  CD1      -77.2250  110.4250   69.4520 C.ar  464  TYR464     -0.0009
    168  CD2      -78.3730  110.8890   67.4070 C.ar  464  TYR464     -0.0009
    169  CE1      -78.3620  110.7990   70.1850 C.ar  464  TYR464      0.0417
    170  CE2      -79.5180  111.2660   68.1220 C.ar  464  TYR464      0.0417
    171  CZ       -79.5090  111.2240   69.5150 C.ar  464  TYR464      0.1957
    172  OH       -80.6290  111.6340   70.2310 O.3   464  TYR464     -0.2866
@<TRIPOS>BOND
     1   146   145    2
     2   145   144    1
     3   140   139    2
     4   139   138    1
     5   143   144    1
     6   144   147    1
     7   142   141    1
     8    27    28    1
     9   141   138    1
    10   138   137    1
    11   147   148    1
    12   136   135    2
    13    29    28    1
    14    29    30    2
    15    28    31    1
    16   135   137   am
    17   135   134    1
    18    31    32    1
    19   148   149    2
    20   148   150   am
    21    34    33   ar
    22   134   133    1
    23    32    33    1
    24    33    35   ar
    25   101    99   am
    26   124   123    1
    27   128   127    2
    28   127   126    1
    29    99   100    2
    30    99    98    1
    31    89    91   ar
    32    89    88   ar
    33    87    88    1
    34    87    84    1
    35    91    92   ar
    36   132   130   ar
    37   123   120    1
    38    88    90   ar
    39    97    98    1
    40    97    94    1
    41    92    90   ar
    42    93    94    1
    43   154   153    2
    44   126   125    1
    45   126   129    1
    46   130   129    1
    47   130   131   ar
    48   125   121   am
    49   121   122    2
    50   121   120    1
    51    94    95    1
    52   120   119    1
    53    84    85    1
    54    84    83    1
    55   153   152    1
    56   164   163    2
    57   151   152    1
    58    44    42   ar
    59    44    45   ar
    60    86    85    2
    61    42    41   ar
    62    96    95    2
    63   152   155    1
    64   161   162    1
    65    83    79   am
    66    95   102   am
    67   119   115   am
    68    36    37    1
    69   116   115    2
    70   163   162    1
    71    54    55    1
    72    54    51    1
    73    45    47   ar
    74    45    43   ar
    75    56    55   ar
    76    56    58   ar
    77   115   114    1
    78    80    79    2
    79    79    78    1
    80    55    57   ar
    81    58    60   ar
    82   162   165    1
    83    41    40    1
    84    41    43   ar
    85   165   166    1
    86    47    49   ar
    87    57    59   ar
    88    60    59   ar
    89    60    61    1
    90   168   166   ar
    91   168   170   ar
    92    52    53    2
    93    52    51    1
    94   155   156    1
    95   102   103    1
    96    81    78    1
    97    81    82    1
    98    40    37    1
    99   156   158   ar
   100   156   157   ar
   101   158   160   ar
   102    37    38    1
   103    43    46   ar
   104    51    50    1
   105   157   159   ar
   106   166   167   ar
   107   170   171   ar
   108   160   159   ar
   109    78    77    1
   110   113   114    1
   111   113   104   am
   112   114   117    1
   113    49    48   ar
   114   103   104    1
   115   103   106    1
   116   104   105    2
   117    38    39    2
   118    46    48   ar
   119   167   169   ar
   120   171   169   ar
   121   171   172    1
   122   117   118    1
   123   106   107    1
   124   107   108    1
   125    69    67    1
   126   108   109    1
   127    73    72    2
   128   109   110    2
   129   111   110    1
   130   110   112    1
   131    72    71    1
   132    67    66    1
   133    67    68    1
   134    66    63    1
   135    65    64    2
   136    18    17    1
   137    25    24    1
   138     7     6    2
   139    26    24    1
   140    64    63    1
   141    64    70   am
   142    71    70    1
   143    71    74    1
   144     8     6   am
   145    24    21    1
   146     6     5    1
   147    63    62    1
   148    70    76    1
   149    17    16    2
   150    17    19    1
   151    74    75    1
   152    16    15    1
   153     5     2    1
   154    76    75    1
   155    21    22    1
   156    21    20    1
   157    22    23    2
   158    20    11   am
   159    15    14    1
   160    14    13    1
   161     2     1    1
   162     2     3    1
   163     3     9   am
   164     3     4    2
   165     9    10    1
   166    11    10    1
   167    11    12    2
   168    13    10    1
