@<TRIPOS>MOLECULE
tmp/1sejC01.pdb
 193 186 0 0 0
SMALL
GASTEIGER

@<TRIPOS>ATOM
      1  N        -80.1820  112.6200   77.1170 N.3   255  ARG255     -0.1231
      2  CA       -80.8640  111.4970   77.7650 C.3   255  ARG255      0.1694
      3  C        -80.4010  110.1050   77.2990 C.2   255  ARG255      0.2592
      4  O        -80.3460  109.1680   78.1010 O.2   255  ARG255     -0.2718
      5  CB       -82.3820  111.6200   77.6030 C.3   255  ARG255      0.0321
      6  CG       -82.8590  111.6480   76.1860 C.3   255  ARG255      0.0489
      7  CD       -84.2710  111.1040   76.1150 C.3   255  ARG255      0.2205
      8  NE       -84.5060  110.6450   74.7740 N.pl3 255  ARG255     -0.0865
      9  CZ       -84.6470  109.4060   74.3160 C.cat 255  ARG255      0.5346
     10  NH1      -84.8300  109.2830   73.0140 N.pl3 255  ARG255      0.1354
     11  NH2      -84.6460  108.3230   75.0810 N.pl3 255  ARG255      0.1354
     12  N        -80.0750  109.9580   76.0150 N.am  256  THR256     -0.1953
     13  CA       -79.5940  108.6690   75.5190 C.3   256  THR256      0.1897
     14  C        -78.1260  108.5920   75.9180 C.2   256  THR256      0.2313
     15  O        -77.5270  109.5970   76.3020 O.2   256  THR256     -0.2863
     16  CB       -79.6970  108.5520   73.9780 C.3   256  THR256      0.1794
     17  OG1      -78.5060  109.0720   73.3700 O.3   256  THR256     -0.2208
     18  CG2      -80.9120  109.3220   73.4620 C.3   256  THR256      0.0378
     19  N        -86.0850  104.2070   53.1670 N.3   285  ALA285     -0.1245
     20  CA       -87.2500  103.3110   53.1860 C.3   285  ALA285      0.1562
     21  C        -88.5790  104.0590   53.1790 C.2   285  ALA285      0.2260
     22  O        -89.1270  104.3910   54.2370 O.2   285  ALA285     -0.2867
     23  CB       -87.1870  102.3810   54.4130 C.3   285  ALA285      0.0290
     24  N        -91.7410  102.2770   55.0880 N.3   288  SER288     -0.1202
     25  CA       -91.7390  102.4680   56.5330 C.3   288  SER288      0.2020
     26  C        -92.2870  103.8510   56.8730 C.2   288  SER288      0.2618
     27  O        -93.1170  103.9940   57.7710 O.2   288  SER288     -0.2717
     28  CB       -90.3230  102.3100   57.0860 C.3   288  SER288      0.2103
     29  OG       -89.7930  101.0370   56.7590 O.3   288  SER288     -0.2182
     30  N        -91.8280  104.8640   56.1460 N.am  289  ILE289     -0.1979
     31  CA       -92.2890  106.2350   56.3560 C.3   289  ILE289      0.1595
     32  C        -93.8070  106.2830   56.2650 C.2   289  ILE289      0.2287
     33  O        -94.4860  106.7380   57.1880 O.2   289  ILE289     -0.2864
     34  CB       -91.7080  107.1800   55.2870 C.3   289  ILE289      0.0276
     35  CG1      -90.1910  107.2330   55.4220 C.3   289  ILE289      0.0022
     36  CG2      -92.3040  108.5760   55.4210 C.3   289  ILE289      0.0022
     37  CD1      -89.5260  108.0410   54.3580 C.3   289  ILE289      0.0001
     38  N        -95.8360  104.6730   59.0340 N.3   292  GLU292     -0.1245
     39  CA       -95.8550  105.4080   60.2920 C.3   292  GLU292      0.1567
     40  C        -96.8140  106.5860   60.1660 C.2   292  GLU292      0.2260
     41  O        -97.4540  106.9750   61.1320 O.2   292  GLU292     -0.2867
     42  CB       -94.4640  105.9320   60.6560 C.3   292  GLU292      0.0388
     43  CG       -94.4760  106.8180   61.9040 C.3   292  GLU292      0.1160
     44  CD       -93.1810  107.5860   62.1300 C.2   292  GLU292      0.3649
     45  OE1      -92.7040  108.2760   61.2020 O.co2 292  GLU292     -0.2457
     46  OE2      -92.6480  107.5060   63.2530 O.co2 292  GLU292     -0.2457
     47  N        -92.2600   97.6110   60.7440 N.3   311  VAL311     -0.1231
     48  CA       -91.6590   98.9290   60.9460 C.3   311  VAL311      0.1692
     49  C        -91.2420   98.8760   62.4050 C.2   311  VAL311      0.2592
     50  O        -92.0840   98.7030   63.2800 O.2   311  VAL311     -0.2718
     51  CB       -92.6730  100.0590   60.7590 C.3   311  VAL311      0.0266
     52  CG1      -92.0150  101.3960   61.0540 C.3   311  VAL311      0.0020
     53  CG2      -93.2080  100.0390   59.3420 C.3   311  VAL311      0.0020
     54  N        -89.9570   99.0440   62.6800 N.am  312  TYR312     -0.1962
     55  CA       -89.4840   98.9100   64.0490 C.3   312  TYR312      0.1771
     56  C        -88.9140  100.1200   64.7830 C.2   312  TYR312      0.2619
     57  O        -88.3270   99.9660   65.8450 O.2   312  TYR312     -0.2715
     58  CB       -88.4430   97.7940   64.0770 C.3   312  TYR312      0.0574
     59  CG       -88.8540   96.5510   63.3180 C.ar  312  TYR312     -0.0198
     60  CD1      -89.8380   95.7000   63.8160 C.ar  312  TYR312     -0.0009
     61  CD2      -88.2630   96.2280   62.1000 C.ar  312  TYR312     -0.0009
     62  CE1      -90.2220   94.5550   63.1180 C.ar  312  TYR312      0.0417
     63  CE2      -88.6410   95.0870   61.3950 C.ar  312  TYR312      0.0417
     64  CZ       -89.6200   94.2560   61.9090 C.ar  312  TYR312      0.1957
     65  OH       -90.0060   93.1260   61.2230 O.3   312  TYR312     -0.2866
     66  N        -89.0820  101.3200   64.2610 N.am  313  ILE313     -0.1963
     67  CA       -88.5050  102.4670   64.9470 C.3   313  ILE313      0.1727
     68  C        -89.0400  102.7260   66.3380 C.2   313  ILE313      0.2616
     69  O        -88.2990  103.1850   67.2090 O.2   313  ILE313     -0.2715
     70  CB       -88.6860  103.7470   64.1480 C.3   313  ILE313      0.0290
     71  CG1      -90.1520  103.8890   63.7510 C.3   313  ILE313      0.0022
     72  CG2      -87.7870  103.7260   62.9400 C.3   313  ILE313      0.0023
     73  CD1      -90.4850  105.2100   63.1050 C.3   313  ILE313      0.0001
     74  N        -90.3200  102.4470   66.5540 N.am  314  TRP314     -0.1974
     75  CA       -90.9060  102.6850   67.8640 C.3   314  TRP314      0.1640
     76  C        -90.7660  101.5330   68.8530 C.2   314  TRP314      0.2290
     77  O        -91.3410  101.5700   69.9380 O.2   314  TRP314     -0.2864
     78  CB       -92.3730  103.0800   67.7270 C.3   314  TRP314      0.0576
     79  CG       -92.5600  104.4540   67.1520 C.ar  314  TRP314      0.0006
     80  CD1      -92.7550  104.7800   65.8400 C.ar  314  TRP314      0.0946
     81  CD2      -92.5800  105.6890   67.8770 C.ar  314  TRP314      0.0152
     82  NE1      -92.9030  106.1380   65.7040 N.ar  314  TRP314     -0.2442
     83  CE2      -92.7980  106.7200   66.9400 C.ar  314  TRP314      0.0810
     84  CE3      -92.4340  106.0260   69.2310 C.ar  314  TRP314      0.0012
     85  CZ2      -92.8770  108.0630   67.3150 C.ar  314  TRP314      0.0191
     86  CZ3      -92.5130  107.3610   69.6000 C.ar  314  TRP314      0.0001
     87  CH2      -92.7330  108.3600   68.6470 C.ar  314  TRP314      0.0015
     88  N        -88.4420  102.7260   72.0570 N.3   317  ASN317     -0.1240
     89  CA       -89.1990  103.4960   73.0270 C.3   317  ASN317      0.1653
     90  C        -90.5100  102.8270   73.4170 C.2   317  ASN317      0.2266
     91  O        -91.3280  103.4120   74.1260 O.2   317  ASN317     -0.2867
     92  CB       -89.4560  104.9010   72.4820 C.3   317  ASN317      0.1155
     93  CG       -88.1740  105.6570   72.2110 C.2   317  ASN317      0.2627
     94  OD1      -87.4270  105.3290   71.2890 O.2   317  ASN317     -0.2716
     95  ND2      -87.9030  106.6680   73.0250 N.am  317  ASN317     -0.0877
     96  N        -92.4300  109.1370   74.4830 N.3   397  LEU397     -0.1245
     97  CA       -91.4590  110.0930   73.9870 C.3   397  LEU397      0.1561
     98  C        -92.1840  111.3710   73.6160 C.2   397  LEU397      0.2260
     99  O        -93.1930  111.3350   72.9150 O.2   397  LEU397     -0.2867
    100  CB       -90.7710  109.5180   72.7590 C.3   397  LEU397      0.0270
    101  CG       -89.4830  110.1800   72.2890 C.3   397  LEU397      0.0019
    102  CD1      -88.4580  110.1460   73.4090 C.3   397  LEU397      0.0001
    103  CD2      -88.9610  109.4460   71.0650 C.3   397  LEU397      0.0001
    104  N        -91.5770  116.3660   66.1470 N.3   401  HIS401     -0.1241
    105  CA       -92.1780  117.2440   65.1450 C.3   401  HIS401      0.1621
    106  C        -93.3680  117.8270   65.8820 C.2   401  HIS401      0.2264
    107  O        -94.5060  117.3750   65.7640 O.2   401  HIS401     -0.2867
    108  CB       -92.6040  116.5160   63.8520 C.3   401  HIS401      0.0745
    109  CG       -93.1270  115.1260   64.0410 C.ar  401  HIS401      0.0817
    110  ND1      -94.4300  114.7850   63.7560 N.ar  401  HIS401     -0.2268
    111  CD2      -92.4960  113.9710   64.3510 C.ar  401  HIS401      0.1154
    112  CE1      -94.5770  113.4780   63.8750 C.ar  401  HIS401      0.1986
    113  NE2      -93.4180  112.9600   64.2340 N.ar  401  HIS401     -0.2212
    114  N        -82.6750  114.2850   64.8420 N.3   424  ASP424     -0.1239
    115  CA       -81.5360  113.4030   64.6360 C.3   424  ASP424      0.1674
    116  C        -81.2470  113.4560   63.1320 C.2   424  ASP424      0.2266
    117  O        -81.8540  112.7230   62.3480 O.2   424  ASP424     -0.2867
    118  CB       -81.9030  111.9880   65.0720 C.3   424  ASP424      0.1410
    119  CG       -80.8200  110.9810   64.7620 C.2   424  ASP424      0.3668
    120  OD1      -80.8970  109.8490   65.2880 O.co2 424  ASP424     -0.2456
    121  OD2      -79.8970  111.3110   63.9880 O.co2 424  ASP424     -0.2456
    122  N        -80.3010  109.8670   61.4230 N.3   427  LEU427     -0.1231
    123  CA       -81.2730  108.8000   61.3690 C.3   427  LEU427      0.1693
    124  C        -82.6810  109.2400   61.0450 C.2   427  LEU427      0.2592
    125  O        -83.2490  108.7780   60.0600 O.2   427  LEU427     -0.2718
    126  CB       -81.2730  108.0460   62.6890 C.3   427  LEU427      0.0284
    127  CG       -82.0650  106.7520   62.7110 C.3   427  LEU427      0.0019
    128  CD1      -81.5130  105.7970   61.6610 C.3   427  LEU427      0.0001
    129  CD2      -81.9540  106.1380   64.0930 C.3   427  LEU427      0.0001
    130  N        -83.2360  110.1340   61.8600 N.am  428  GLY428     -0.1957
    131  CA       -84.6020  110.5910   61.6600 C.3   428  GLY428      0.1869
    132  C        -84.9100  111.6250   60.5900 C.2   428  GLY428      0.2309
    133  O        -85.7890  111.4110   59.7600 O.2   428  GLY428     -0.2863
    134  N        -86.2390  110.8650   57.1970 N.3   431  PHE431     -0.1227
    135  CA       -87.5970  110.3480   57.2760 C.3   431  PHE431      0.1736
    136  C        -88.6300  111.4370   57.5600 C.2   431  PHE431      0.2595
    137  O        -89.7300  111.3990   57.0180 O.2   431  PHE431     -0.2718
    138  CB       -87.6780  109.2390   58.3310 C.3   431  PHE431      0.0547
    139  CG       -86.8650  108.0300   57.9800 C.ar  431  PHE431     -0.0202
    140  CD1      -85.4780  108.0520   58.0920 C.ar  431  PHE431     -0.0042
    141  CD2      -87.4670  106.9060   57.4360 C.ar  431  PHE431     -0.0042
    142  CE1      -84.6930  106.9640   57.6580 C.ar  431  PHE431     -0.0003
    143  CE2      -86.6930  105.8160   56.9970 C.ar  431  PHE431     -0.0003
    144  CZ       -85.3040  105.8500   57.1080 C.ar  431  PHE431     -0.0000
    145  N        -88.2850  112.4120   58.3940 N.am  432  ASN432     -0.1974
    146  CA       -89.2160  113.4940   58.6910 C.3   432  ASN432      0.1688
    147  C        -89.5330  114.3020   57.4440 C.2   432  ASN432      0.2292
    148  O        -90.6870  114.6640   57.1940 O.2   432  ASN432     -0.2864
    149  CB       -88.6360  114.4390   59.7350 C.3   432  ASN432      0.1181
    150  CG       -88.6160  113.8360   61.1090 C.2   432  ASN432      0.2629
    151  OD1      -87.6360  113.2020   61.5170 O.2   432  ASN432     -0.2716
    152  ND2      -89.7120  114.0150   61.8380 N.am  432  ASN432     -0.0877
    153  N        -75.5360  112.2800   66.1100 N.3   464  TYR464     -0.1241
    154  CA       -75.0440  111.3860   67.1490 C.3   464  TYR464      0.1605
    155  C        -73.6270  110.9810   66.7530 C.2   464  TYR464      0.2264
    156  O        -73.3670  110.6790   65.5940 O.2   464  TYR464     -0.2867
    157  CB       -75.9610  110.1710   67.2770 C.3   464  TYR464      0.0534
    158  CG       -77.2170  110.4720   68.0560 C.ar  464  TYR464     -0.0201
    159  CD1      -77.2250  110.4250   69.4520 C.ar  464  TYR464     -0.0009
    160  CD2      -78.3730  110.8890   67.4070 C.ar  464  TYR464     -0.0009
    161  CE1      -78.3620  110.7990   70.1850 C.ar  464  TYR464      0.0417
    162  CE2      -79.5180  111.2660   68.1220 C.ar  464  TYR464      0.0417
    163  CZ       -79.5090  111.2240   69.5150 C.ar  464  TYR464      0.1957
    164  OH       -80.6290  111.6340   70.2310 O.3   464  TYR464     -0.2866
    165  N        -77.3000  103.0340   60.0340 N.3   515  MET515     -0.1230
    166  CA       -77.0520  103.9480   61.1520 C.3   515  MET515      0.1702
    167  C        -77.9210  103.5870   62.3400 C.2   515  MET515      0.2592
    168  O        -79.1450  103.6820   62.2670 O.2   515  MET515     -0.2718
    169  CB       -77.3450  105.3770   60.7300 C.3   515  MET515      0.0401
    170  CG       -76.3920  105.8780   59.6840 C.3   515  MET515      0.0596
    171  SD       -76.8150  107.5300   59.2290 S.3   515  MET515     -0.1393
    172  CE       -78.1950  107.1640   58.0650 C.3   515  MET515      0.0692
    173  N        -77.2880  103.2040   63.4420 N.am  516  ASP516     -0.1960
    174  CA       -78.0190  102.7810   64.6350 C.3   516  ASP516      0.1840
    175  C        -78.5540  103.8810   65.5610 C.2   516  ASP516      0.2622
    176  O        -77.8990  104.8900   65.8160 O.2   516  ASP516     -0.2715
    177  CB       -77.1470  101.8020   65.4260 C.3   516  ASP516      0.1450
    178  CG       -76.5670  100.7080   64.5450 C.2   516  ASP516      0.3671
    179  OD1      -77.3650   99.9300   63.9780 O.co2 516  ASP516     -0.2456
    180  OD2      -75.3200  100.6380   64.4130 O.co2 516  ASP516     -0.2456
    181  N        -79.7650  103.6500   66.0620 N.am  517  MET517     -0.1963
    182  CA       -80.4580  104.5680   66.9660 C.3   517  MET517      0.1736
    183  C        -80.0210  104.4110   68.4290 C.2   517  MET517      0.2616
    184  O        -79.5710  103.3410   68.8480 O.2   517  MET517     -0.2715
    185  CB       -81.9680  104.3310   66.8810 C.3   517  MET517      0.0427
    186  CG       -82.7700  105.1260   67.8950 C.3   517  MET517      0.0599
    187  SD       -84.4660  104.5090   68.1310 S.3   517  MET517     -0.1393
    188  CE       -84.3610  103.7900   69.8070 C.3   517  MET517      0.0692
    189  N        -80.1580  105.4870   69.2000 N.am  518  ALA518     -0.1977
    190  CA       -79.8170  105.4730   70.6210 C.3   518  ALA518      0.1597
    191  C        -81.1590  105.4000   71.3530 C.2   518  ALA518      0.2287
    192  O        -82.0110  106.2760   71.1680 O.2   518  ALA518     -0.2864
    193  CB       -79.0630  106.7520   70.9960 C.3   518  ALA518      0.0319
@<TRIPOS>BOND
     1    19    20    1
     2    21    20    1
     3    21    22    2
     4    20    23    1
     5    37    35    1
     6    24    25    1
     7    34    36    1
     8    34    35    1
     9    34    31    1
    10    30    31    1
    11    30    26   am
    12    32    31    1
    13    32    33    2
    14    25    26    1
    15    25    28    1
    16    29    28    1
    17    26    27    2
    18   143   144   ar
    19   143   141   ar
    20   137   136    2
    21   144   142   ar
    22   148   147    2
    23   134   135    1
    24   135   136    1
    25   135   138    1
    26   141   139   ar
    27   147   146    1
    28   136   145   am
    29   142   140   ar
    30   139   140   ar
    31   139   138    1
    32   172   171    1
    33   145   146    1
    34   146   149    1
    35    38    39    1
    36   171   170    1
    37    53    51    1
    38   170   169    1
    39   149   150    1
    40   133   132    2
    41   165   166    1
    42   125   124    2
    43    40    39    1
    44    40    41    2
    45    39    42    1
    46   132   131    1
    47    42    43    1
    48   169   166    1
    49    47    48    1
    50    51    48    1
    51    51    52    1
    52    48    49    1
    53   124   123    1
    54   124   130   am
    55   150   151    2
    56   150   152   am
    57   166   167    1
    58    45    44   ar
    59    65    64    1
    60   123   122    1
    61   123   126    1
    62    63    64   ar
    63    63    61   ar
    64   131   130    1
    65   128   127    1
    66    43    44    1
    67    64    62   ar
    68    61    59   ar
    69    44    46   ar
    70   168   167    2
    71   167   173   am
    72   117   116    2
    73    49    54   am
    74    49    50    2
    75    54    55    1
    76   126   127    1
    77   127   129    1
    78    72    70    1
    79    73    71    1
    80    62    60   ar
    81   116   115    1
    82    59    60   ar
    83    59    58    1
    84   173   174    1
    85    71    70    1
    86   110   112   ar
    87   110   109   ar
    88   108   109    1
    89   108   105    1
    90   112   113   ar
    91   179   178   ar
    92   121   119   ar
    93   109   111   ar
    94    55    58    1
    95    55    56    1
    96    70    67    1
    97   113   111   ar
    98    66    56   am
    99    66    67    1
   100   180   178   ar
   101   178   177    1
   102   174   177    1
   103   174   175    1
   104   115   114    1
   105   115   118    1
   106   119   118    1
   107   119   120   ar
   108    56    57    2
   109    67    68    1
   110   105   106    1
   111   105   104    1
   112   175   176    2
   113   175   181   am
   114   156   155    2
   115    82    80   ar
   116    82    83   ar
   117   107   106    2
   118    80    79   ar
   119   181   182    1
   120   153   154    1
   121    68    74   am
   122    68    69    2
   123    74    75    1
   124   155   154    1
   125   185   182    1
   126   185   186    1
   127    83    85   ar
   128    83    81   ar
   129   182   183    1
   130   154   157    1
   131    79    78    1
   132    79    81   ar
   133   157   158    1
   134    85    87   ar
   135   160   158   ar
   136   160   162   ar
   137    78    75    1
   138    75    76    1
   139    81    84   ar
   140   186   187    1
   141   158   159   ar
   142   162   163   ar
   143   187   188    1
   144   183   184    2
   145   183   189   am
   146    87    86   ar
   147    76    77    2
   148   189   190    1
   149    84    86   ar
   150   159   161   ar
   151   163   161   ar
   152   163   164    1
   153   190   193    1
   154   190   191    1
   155   103   101    1
   156   192   191    2
   157    94    93    2
   158    88    89    1
   159    93    92    1
   160    93    95   am
   161   101   100    1
   162   101   102    1
   163    92    89    1
   164   100    97    1
   165    99    98    2
   166    10     9    1
   167    89    90    1
   168    17    16    1
   169    90    91    2
   170    18    16    1
   171    98    97    1
   172    16    13    1
   173    97    96    1
   174     9     8    2
   175     9    11    1
   176     8     7    1
   177    13    14    1
   178    13    12    1
   179    14    15    2
   180    12     3   am
   181     7     6    1
   182     6     5    1
   183     1     2    1
   184     3     2    1
   185     3     4    2
   186     5     2    1
