@<TRIPOS>MOLECULE
tmp/1sejC02.pdb
 189 181 0 0 0
SMALL
GASTEIGER

@<TRIPOS>ATOM
      1  N        -73.2140  119.8110   25.0100 N.3     7  VAL7       -0.1231
      2  CA       -74.6040  119.8630   25.4410 C.3     7  VAL7        0.1692
      3  C        -75.1250  118.4530   25.2610 C.2     7  VAL7        0.2592
      4  O        -75.0800  117.9120   24.1510 O.2     7  VAL7       -0.2718
      5  CB       -75.4330  120.8090   24.5820 C.3     7  VAL7        0.0266
      6  CG1      -76.8130  120.9820   25.1970 C.3     7  VAL7        0.0020
      7  CG2      -74.7290  122.1380   24.4670 C.3     7  VAL7        0.0020
      8  N        -75.6080  117.8530   26.3430 N.am    8  VAL8       -0.1966
      9  CA       -76.1000  116.4880   26.2740 C.3     8  VAL8        0.1727
     10  C        -77.0610  116.1700   27.4100 C.2     8  VAL8        0.2616
     11  O        -77.0590  116.8290   28.4650 O.2     8  VAL8       -0.2715
     12  CB       -74.9100  115.4850   26.3240 C.3     8  VAL8        0.0290
     13  CG1      -74.1460  115.6630   27.6170 C.3     8  VAL8        0.0023
     14  CG2      -75.4060  114.0460   26.2000 C.3     8  VAL8        0.0023
     15  N        -77.8920  115.1590   27.1790 N.am    9  ALA9       -0.1977
     16  CA       -78.8490  114.7010   28.1680 C.3     9  ALA9        0.1597
     17  C        -78.6420  113.2010   28.2430 C.2     9  ALA9        0.2287
     18  O        -78.7610  112.5040   27.2350 O.2     9  ALA9       -0.2864
     19  CB       -80.2740  115.0250   27.7250 C.3     9  ALA9        0.0319
     20  N        -83.9350  109.7070   20.9170 N.3    23  LEU23      -0.1245
     21  CA       -83.6440  109.9350   22.3160 C.3    23  LEU23       0.1561
     22  C        -84.4390  108.8410   23.0140 C.2    23  LEU23       0.2260
     23  O        -85.4400  108.3640   22.4820 O.2    23  LEU23      -0.2867
     24  CB       -84.1430  111.3100   22.7500 C.3    23  LEU23       0.0270
     25  CG       -83.4170  112.4660   22.0730 C.3    23  LEU23       0.0019
     26  CD1      -84.0010  113.7730   22.5330 C.3    23  LEU23       0.0001
     27  CD2      -81.9330  112.4010   22.4090 C.3    23  LEU23       0.0001
     28  N        -86.3460  109.1080   25.4410 N.3    25  TRP25      -0.1241
     29  CA       -87.4160  109.7460   26.2000 C.3    25  TRP25       0.1605
     30  C        -87.8360  111.0100   25.4510 C.2    25  TRP25       0.2264
     31  O        -87.1390  111.4590   24.5260 O.2    25  TRP25      -0.2867
     32  CB       -86.9020  110.1350   27.5970 C.3    25  TRP25       0.0550
     33  CG       -85.6820  111.0070   27.5180 C.ar   25  TRP25       0.0003
     34  CD1      -85.6190  112.2870   27.0380 C.ar   25  TRP25       0.0946
     35  CD2      -84.3330  110.6180   27.7940 C.ar   25  TRP25       0.0152
     36  NE1      -84.3130  112.7110   26.9880 N.ar   25  TRP25      -0.2442
     37  CE2      -83.5030  111.7080   27.4470 C.ar   25  TRP25       0.0810
     38  CE3      -83.7440  109.4520   28.2980 C.ar   25  TRP25       0.0012
     39  CZ2      -82.1130  111.6680   27.5850 C.ar   25  TRP25       0.0191
     40  CZ3      -82.3610  109.4120   28.4370 C.ar   25  TRP25       0.0001
     41  CH2      -81.5600  110.5160   28.0800 C.ar   25  TRP25       0.0015
     42  N        -89.9320  117.9160   26.3940 N.3    28  SER28      -0.1217
     43  CA       -89.8480  119.1540   25.6340 C.3    28  SER28       0.1889
     44  C        -89.0800  120.2720   26.3180 C.2    28  SER28       0.2288
     45  O        -88.3580  121.0290   25.6570 O.2    28  SER28      -0.2866
     46  CB       -91.2450  119.6490   25.2440 C.3    28  SER28       0.2089
     47  OG       -92.0840  119.7500   26.3740 O.3    28  SER28      -0.2183
     48  N        -86.5580  120.0650   27.8800 N.3    30  ASP30      -0.1225
     49  CA       -85.1440  119.8480   27.6120 C.3    30  ASP30       0.1805
     50  C        -84.7740  120.2140   26.1830 C.2    30  ASP30       0.2598
     51  O        -83.6660  120.6870   25.9400 O.2    30  ASP30      -0.2718
     52  CB       -84.7390  118.4070   27.8990 C.3    30  ASP30       0.1424
     53  CG       -83.2330  118.1960   27.7770 C.2    30  ASP30       0.3668
     54  OD1      -82.4740  118.9680   28.4070 O.co2  30  ASP30      -0.2456
     55  OD2      -82.8110  117.2570   27.0570 O.co2  30  ASP30      -0.2456
     56  N        -85.6790  119.9870   25.2300 N.am   31  LEU31      -0.1966
     57  CA       -85.3850  120.3670   23.8500 C.3    31  LEU31       0.1728
     58  C        -85.3670  121.8780   23.8870 C.2    31  LEU31       0.2616
     59  O        -84.5070  122.5280   23.2950 O.2    31  LEU31      -0.2715
     60  CB       -86.4760  119.8990   22.8960 C.3    31  LEU31       0.0311
     61  CG       -86.5790  118.3890   22.6880 C.3    31  LEU31       0.0022
     62  CD1      -87.7510  118.0700   21.7790 C.3    31  LEU31       0.0001
     63  CD2      -85.2750  117.8660   22.0990 C.3    31  LEU31       0.0001
     64  N        -86.3210  122.4330   24.6230 N.am   32  LYS32      -0.1963
     65  CA       -86.4320  123.8720   24.7630 C.3    32  LYS32       0.1728
     66  C        -85.1420  124.4180   25.3700 C.2    32  LYS32       0.2616
     67  O        -84.6590  125.4770   24.9670 O.2    32  LYS32      -0.2715
     68  CB       -87.6350  124.2050   25.6420 C.3    32  LYS32       0.0311
     69  CG       -88.0080  125.6670   25.6450 C.3    32  LYS32       0.0038
     70  CD       -89.5040  125.8090   25.8340 C.3    32  LYS32       0.0206
     71  CE       -90.2650  125.1030   24.6960 C.3    32  LYS32       0.1093
     72  NZ       -91.7360  124.9870   24.9630 N.3    32  LYS32      -0.1314
     73  N        -84.5760  123.6860   26.3280 N.am   33  PHE33      -0.1960
     74  CA       -83.3370  124.1270   26.9540 C.3    33  PHE33       0.1771
     75  C        -82.2260  124.0860   25.9210 C.2    33  PHE33       0.2620
     76  O        -81.5420  125.0860   25.6830 O.2    33  PHE33      -0.2715
     77  CB       -82.9530  123.2300   28.1280 C.3    33  PHE33       0.0574
     78  CG       -81.6840  123.6480   28.7970 C.ar   33  PHE33      -0.0200
     79  CD1      -81.6060  124.8670   29.4630 C.ar   33  PHE33      -0.0042
     80  CD2      -80.5490  122.8530   28.7200 C.ar   33  PHE33      -0.0042
     81  CE1      -80.4040  125.2930   30.0420 C.ar   33  PHE33      -0.0003
     82  CE2      -79.3400  123.2670   29.2940 C.ar   33  PHE33      -0.0003
     83  CZ       -79.2680  124.4900   29.9550 C.ar   33  PHE33      -0.0000
     84  N        -82.0540  122.9230   25.3060 N.am   34  PHE34      -0.1960
     85  CA       -81.0340  122.7500   24.2910 C.3    34  PHE34       0.1771
     86  C        -81.0630  123.8990   23.2990 C.2    34  PHE34       0.2620
     87  O        -80.0240  124.4180   22.9040 O.2    34  PHE34      -0.2715
     88  CB       -81.2520  121.4380   23.5540 C.3    34  PHE34       0.0574
     89  CG       -80.4960  121.3380   22.2540 C.ar   34  PHE34      -0.0200
     90  CD1      -81.0430  121.8350   21.0720 C.ar   34  PHE34      -0.0042
     91  CD2      -79.2220  120.7630   22.2140 C.ar   34  PHE34      -0.0042
     92  CE1      -80.3290  121.7590   19.8740 C.ar   34  PHE34      -0.0003
     93  CE2      -78.5060  120.6870   21.0200 C.ar   34  PHE34      -0.0003
     94  CZ       -79.0560  121.1820   19.8540 C.ar   34  PHE34      -0.0000
     95  N        -82.2580  124.2960   22.8910 N.am   35  SER35      -0.1950
     96  CA       -82.3820  125.3840   21.9440 C.3    35  SER35       0.1924
     97  C        -81.9040  126.7060   22.5420 C.2    35  SER35       0.2314
     98  O        -81.1360  127.4330   21.9040 O.2    35  SER35      -0.2863
     99  CB       -83.8280  125.5280   21.4910 C.3    35  SER35       0.2116
    100  OG       -83.9300  126.5250   20.4890 O.3    35  SER35      -0.2180
    101  N        -71.8100  118.0420   15.2270 N.3    52  MET52      -0.1245
    102  CA       -72.5170  116.7920   15.5060 C.3    52  MET52       0.1570
    103  C        -72.1540  115.6880   14.5190 C.2    52  MET52       0.2261
    104  O        -71.8100  115.9520   13.3610 O.2    52  MET52      -0.2867
    105  CB       -74.0330  117.0160   15.4860 C.3    52  MET52       0.0387
    106  CG       -74.5790  117.4810   14.1430 C.3    52  MET52       0.0595
    107  SD       -76.3820  117.7160   14.1190 S.3    52  MET52      -0.1393
    108  CE       -76.5080  119.3790   14.7780 C.3    52  MET52       0.0692
    109  N        -76.3640  111.7900   14.1830 N.3    56  THR56      -0.1218
    110  CA       -77.1720  112.7550   14.9190 C.3    56  THR56       0.1862
    111  C        -77.8130  113.6990   13.9100 C.2    56  THR56       0.2287
    112  O        -78.9630  114.1050   14.0680 O.2    56  THR56      -0.2866
    113  CB       -76.3200  113.5440   15.9450 C.3    56  THR56       0.1770
    114  OG1      -75.9000  112.6520   16.9840 O.3    56  THR56      -0.2211
    115  CG2      -77.1300  114.6870   16.5680 C.3    56  THR56       0.0375
    116  N        -80.7440  112.2590   12.8510 N.3    59  SER59      -0.1202
    117  CA       -81.7670  112.3900   13.8890 C.3    59  SER59       0.2020
    118  C        -82.5660  113.6760   13.7280 C.2    59  SER59       0.2618
    119  O        -83.7730  113.6900   13.9370 O.2    59  SER59      -0.2717
    120  CB       -81.1190  112.4270   15.2610 C.3    59  SER59       0.2103
    121  OG       -80.2600  111.3310   15.4230 O.3    59  SER59      -0.2182
    122  N        -81.8760  114.7590   13.3820 N.am   60  ILE60      -0.1979
    123  CA       -82.5000  116.0640   13.2000 C.3    60  ILE60       0.1595
    124  C        -83.2870  116.1260   11.8920 C.2    60  ILE60       0.2287
    125  O        -83.9660  117.1170   11.6070 O.2    60  ILE60      -0.2864
    126  CB       -81.4300  117.1840   13.1970 C.3    60  ILE60       0.0276
    127  CG1      -80.4530  116.9470   14.3410 C.3    60  ILE60       0.0022
    128  CG2      -82.0830  118.5570   13.3470 C.3    60  ILE60       0.0022
    129  CD1      -81.1230  116.4980   15.6270 C.3    60  ILE60       0.0001
    130  N        -80.9360  124.1940   12.0430 N.3    65  LEU65      -0.1245
    131  CA       -81.5290  124.6910   13.2740 C.3    65  LEU65       0.1561
    132  C        -81.4650  126.2150   13.2040 C.2    65  LEU65       0.2260
    133  O        -80.3910  126.7990   13.1810 O.2    65  LEU65      -0.2867
    134  CB       -80.7500  124.1690   14.4790 C.3    65  LEU65       0.0270
    135  CG       -80.7510  122.6470   14.6480 C.3    65  LEU65       0.0019
    136  CD1      -79.8960  122.2650   15.8350 C.3    65  LEU65       0.0001
    137  CD2      -82.1680  122.1550   14.8470 C.3    65  LEU65       0.0001
    138  N        -78.6420  129.1830   13.8010 N.3    68  ARG68      -0.1245
    139  CA       -77.3620  128.5410   14.0620 C.3    68  ARG68       0.1563
    140  C        -76.7440  127.9030   12.8250 C.2    68  ARG68       0.2260
    141  O        -77.3530  127.8480   11.7580 O.2    68  ARG68      -0.2867
    142  CB       -77.5300  127.4920   15.1610 C.3    68  ARG68       0.0307
    143  CG       -77.7530  128.0820   16.5280 C.3    68  ARG68       0.0489
    144  CD       -78.6090  127.1720   17.3590 C.3    68  ARG68       0.2205
    145  NE       -79.9880  127.1930   16.8880 N.pl3  68  ARG68      -0.0865
    146  CZ       -80.9570  126.4480   17.4000 C.cat  68  ARG68       0.5346
    147  NH1      -80.6920  125.6170   18.3980 N.pl3  68  ARG68       0.1354
    148  NH2      -82.1900  126.5470   16.9280 N.pl3  68  ARG68       0.1354
    149  N        -72.5820  119.0190   19.8690 N.3   111  CYS111     -0.1221
    150  CA       -73.9390  118.5210   20.0170 C.3   111  CYS111      0.1808
    151  C        -74.2420  117.0420   19.9090 C.2   111  CYS111      0.2601
    152  O        -75.3960  116.6570   19.7080 O.2   111  CYS111     -0.2717
    153  CB       -74.8530  119.2830   19.0690 C.3   111  CYS111      0.0970
    154  SG       -74.8770  121.0110   19.4760 S.3   111  CYS111     -0.0800
    155  N        -73.2460  116.1840   20.0150 N.am  112  GLY112     -0.1957
    156  CA       -73.6420  114.8030   19.9810 C.3   112  GLY112      0.1869
    157  C        -73.1170  113.7600   19.0330 C.2   112  GLY112      0.2309
    158  O        -72.5950  114.0140   17.9380 O.2   112  GLY112     -0.2863
    159  N        -68.7230  112.8660   21.0400 N.3   117  TYR117     -0.1241
    160  CA       -68.5380  113.2950   22.4210 C.3   117  TYR117      0.1605
    161  C        -67.2000  112.7520   22.8970 C.2   117  TYR117      0.2264
    162  O        -66.2970  113.5050   23.2620 O.2   117  TYR117     -0.2867
    163  CB       -69.6500  112.7470   23.3170 C.3   117  TYR117      0.0534
    164  CG       -70.9660  113.4910   23.2450 C.ar  117  TYR117     -0.0201
    165  CD1      -71.0130  114.8770   23.3800 C.ar  117  TYR117     -0.0009
    166  CD2      -72.1710  112.7980   23.1160 C.ar  117  TYR117     -0.0009
    167  CE1      -72.2270  115.5580   23.3970 C.ar  117  TYR117      0.0417
    168  CE2      -73.3890  113.4650   23.1310 C.ar  117  TYR117      0.0417
    169  CZ       -73.4100  114.8480   23.2760 C.ar  117  TYR117      0.1957
    170  OH       -74.6120  115.5230   23.3250 O.3   117  TYR117     -0.2866
    171  N        -72.7740  120.9110   29.4620 N.3   130  TYR130     -0.1241
    172  CA       -74.1290  121.1710   29.9430 C.3   130  TYR130      0.1605
    173  C        -74.7820  119.7920   29.9350 C.2   130  TYR130      0.2264
    174  O        -75.1110  119.2530   28.8750 O.2   130  TYR130     -0.2867
    175  CB       -74.8970  122.1200   29.0160 C.3   130  TYR130      0.0534
    176  CG       -74.4360  123.5590   29.0690 C.ar  130  TYR130     -0.0201
    177  CD1      -73.5180  124.0550   28.1380 C.ar  130  TYR130     -0.0009
    178  CD2      -74.9170  124.4320   30.0480 C.ar  130  TYR130     -0.0009
    179  CE1      -73.0840  125.4000   28.1730 C.ar  130  TYR130      0.0417
    180  CE2      -74.4880  125.7780   30.0980 C.ar  130  TYR130      0.0417
    181  CZ       -73.5720  126.2520   29.1540 C.ar  130  TYR130      0.1957
    182  OH       -73.1510  127.5680   29.1960 O.3   130  TYR130     -0.2866
    183  N        -77.8720  117.3290   31.0590 N.3   132  THR132     -0.1218
    184  CA       -79.2240  117.1960   31.5850 C.3   132  THR132      0.1862
    185  C        -79.3490  115.7620   32.0660 C.2   132  THR132      0.2287
    186  O        -79.3470  114.8420   31.2520 O.2   132  THR132     -0.2866
    187  CB       -80.2980  117.4380   30.5220 C.3   132  THR132      0.1770
    188  OG1      -80.1770  118.7750   30.0200 O.3   132  THR132     -0.2211
    189  CG2      -81.6890  117.2440   31.1300 C.3   132  THR132      0.0375
@<TRIPOS>BOND
     1   125   124    2
     2   141   140    2
     3   124   123    1
     4   130   131    1
     5   140   139    1
     6   116   117    1
     7   133   132    2
     8   126   123    1
     9   126   128    1
    10   126   127    1
    11   123   122    1
    12   132   131    1
    13   131   134    1
    14   104   103    2
    15   122   118   am
    16   118   117    1
    17   118   119    2
    18   138   139    1
    19   117   120    1
    20   111   112    2
    21   111   110    1
    22   139   142    1
    23   107   106    1
    24   107   108    1
    25   106   105    1
    26   109   110    1
    27   127   129    1
    28   134   135    1
    29   103   102    1
    30   135   137    1
    31   135   136    1
    32   110   113    1
    33   142   143    1
    34   101   102    1
    35   120   121    1
    36   105   102    1
    37   113   115    1
    38   113   114    1
    39   143   144    1
    40   145   144    1
    41   145   146    2
    42   148   146    1
    43   146   147    1
    44   158   157    2
    45   157   156    1
    46   153   154    1
    47   153   150    1
    48   152   151    2
    49    94    92   ar
    50    94    93   ar
    51   149   150    1
    52    92    90   ar
    53   151   155   am
    54   151   150    1
    55   156   155    1
    56   100    99    1
    57    20    21    1
    58    93    91   ar
    59   159   160    1
    60    90    89   ar
    61    99    96    1
    62    62    61    1
    63    98    97    2
    64    96    97    1
    65    96    95    1
    66    25    27    1
    67    25    26    1
    68    25    24    1
    69    63    61    1
    70    91    89   ar
    71    89    88    1
    72    21    24    1
    73    21    22    1
    74   160   161    1
    75   160   163    1
    76    23    22    2
    77    61    60    1
    78    95    86   am
    79    60    57    1
    80   161   162    2
    81    87    86    2
    82   166   168   ar
    83   166   164   ar
    84   168   169   ar
    85   164   163    1
    86   164   165   ar
    87   169   170    1
    88   169   167   ar
    89    59    58    2
    90    86    85    1
    91   165   167   ar
    92    88    85    1
    93    57    58    1
    94    57    56    1
    95    58    64   am
    96     4     3    2
    97    85    84    1
    98     7     5    1
    99    31    30    2
   100     5     6    1
   101     5     2    1
   102    64    65    1
   103    71    72    1
   104    71    70    1
   105    65    66    1
   106    65    68    1
   107    67    66    2
   108     1     2    1
   109    56    50   am
   110    46    43    1
   111    46    47    1
   112     3     2    1
   113     3     8   am
   114    84    75   am
   115    66    73   am
   116    28    29    1
   117    30    29    1
   118    43    44    1
   119    43    42    1
   120    68    69    1
   121    69    70    1
   122    45    44    2
   123    76    75    2
   124    75    74    1
   125    51    50    2
   126    50    49    1
   127    14    12    1
   128    29    32    1
   129     9    12    1
   130     9     8    1
   131     9    10    1
   132    12    13    1
   133    73    74    1
   134    74    77    1
   135    36    34   ar
   136    36    37   ar
   137    34    33   ar
   138    55    53   ar
   139    15    10   am
   140    15    16    1
   141    18    17    2
   142    10    11    2
   143    37    39   ar
   144    37    35   ar
   145    33    32    1
   146    33    35   ar
   147    39    41   ar
   148    49    48    1
   149    49    52    1
   150    19    16    1
   151    53    52    1
   152    53    54   ar
   153    35    38   ar
   154    41    40   ar
   155    77    78    1
   156   177   179   ar
   157   177   176   ar
   158    16    17    1
   159   179   181   ar
   160    38    40   ar
   161    80    78   ar
   162    80    82   ar
   163    78    79   ar
   164   174   173    2
   165   175   176    1
   166   175   172    1
   167   176   178   ar
   168   181   182    1
   169   181   180   ar
   170    82    83   ar
   171   171   172    1
   172    79    81   ar
   173   173   172    1
   174    83    81   ar
   175   188   187    1
   176   178   180   ar
   177   187   189    1
   178   187   184    1
   179   183   184    1
   180   186   185    2
   181   184   185    1
