@<TRIPOS>MOLECULE
tmp/1semA00.pdb
 112 113 0 0 0
SMALL
GASTEIGER

@<TRIPOS>ATOM
      1  N         -1.7310   -2.5250   23.8090 N.3     9  PHE9       -0.1227
      2  CA        -3.0620   -1.9020   23.7460 C.3     9  PHE9        0.1736
      3  C         -3.2710   -1.3700   22.3290 C.2     9  PHE9        0.2595
      4  O         -2.3200   -1.2660   21.5470 O.2     9  PHE9       -0.2718
      5  CB        -3.1810   -0.6900   24.7140 C.3     9  PHE9        0.0547
      6  CG        -2.2910   -0.7600   25.9470 C.ar    9  PHE9       -0.0202
      7  CD1       -1.0010   -0.2510   25.9200 C.ar    9  PHE9       -0.0042
      8  CD2       -2.7600   -1.2980   27.1350 C.ar    9  PHE9       -0.0042
      9  CE1       -0.1910   -0.2770   27.0640 C.ar    9  PHE9       -0.0003
     10  CE2       -1.9570   -1.3250   28.2740 C.ar    9  PHE9       -0.0003
     11  CZ        -0.6770   -0.8140   28.2360 C.ar    9  PHE9       -0.0000
     12  N         -4.5120   -0.9770   22.0480 N.am   10  ASP10      -0.1960
     13  CA        -4.9230   -0.3960   20.7680 C.3    10  ASP10       0.1840
     14  C         -4.3480    0.9970   20.7040 C.2    10  ASP10       0.2622
     15  O         -4.3600    1.7000   21.7010 O.2    10  ASP10      -0.2715
     16  CB        -6.4460   -0.2150   20.7240 C.3    10  ASP10       0.1450
     17  CG        -7.1510   -1.3680   20.1320 C.2    10  ASP10       0.3671
     18  OD1       -6.7820   -2.5280   20.4080 O.co2  10  ASP10      -0.2456
     19  OD2       -8.0830   -1.1170   19.3610 O.co2  10  ASP10      -0.2456
     20  N         -3.8390    1.3910   19.5460 N.am   11  PHE11      -0.1974
     21  CA        -3.3300    2.7400   19.3880 C.3    11  PHE11       0.1639
     22  C         -3.9950    3.4030   18.2070 C.2    11  PHE11       0.2290
     23  O         -3.8380    2.9320   17.0890 O.2    11  PHE11      -0.2864
     24  CB        -1.8350    2.7560   19.1530 C.3    11  PHE11       0.0560
     25  CG        -1.3000    4.1270   18.8830 C.ar   11  PHE11      -0.0200
     26  CD1       -1.4740    5.1500   19.8120 C.ar   11  PHE11      -0.0042
     27  CD2       -0.6430    4.4110   17.6890 C.ar   11  PHE11      -0.0042
     28  CE1       -1.0050    6.4180   19.5500 C.ar   11  PHE11      -0.0003
     29  CE2       -0.1680    5.6820   17.4210 C.ar   11  PHE11      -0.0003
     30  CZ        -0.3490    6.6840   18.3510 C.ar   11  PHE11      -0.0000
     31  N         -3.3180   10.2000   16.4580 N.3    14  GLN14      -0.1231
     32  CA        -3.9210   11.5150   16.6640 C.3    14  GLN14       0.1698
     33  C         -3.3690   12.5070   15.6180 C.2    14  GLN14       0.2592
     34  O         -3.9110   13.5890   15.4030 O.2    14  GLN14      -0.2718
     35  CB        -3.5740   11.9890   18.0650 C.3    14  GLN14       0.0381
     36  CG        -4.6870   12.6650   18.8430 C.3    14  GLN14       0.0905
     37  CD        -5.9020   11.7760   19.0620 C.2    14  GLN14       0.2608
     38  OE1       -7.0360   12.2170   18.8790 O.2    14  GLN14      -0.2717
     39  NE2       -5.6760   10.5330   19.4810 N.am   14  GLN14      -0.0878
     40  N         -2.2950   12.0970   14.9570 N.am   15  GLU15      -0.1979
     41  CA        -1.6330   12.8950   13.9510 C.3    15  GLU15       0.1602
     42  C         -1.2150   12.0020   12.8010 C.2    15  GLU15       0.2287
     43  O         -1.3410   10.7770   12.8590 O.2    15  GLU15      -0.2864
     44  CB        -0.3960   13.5950   14.5260 C.3    15  GLU15       0.0415
     45  CG        -0.6960   14.8480   15.3310 C.3    15  GLU15       0.1163
     46  CD         0.5160   15.3980   16.0630 C.2    15  GLU15       0.3649
     47  OE1        1.6630   15.2410   15.5770 O.co2  15  GLU15      -0.2457
     48  OE2        0.3110   15.9930   17.1380 O.co2  15  GLU15      -0.2457
     49  N          1.7500    8.5890   12.1460 N.3    18  GLU18      -0.1245
     50  CA         1.6370    7.6280   13.2570 C.3    18  GLU18       0.1567
     51  C          1.0520    6.2870   12.8210 C.2    18  GLU18       0.2260
     52  O          0.1100    6.2530   12.0300 O.2    18  GLU18      -0.2867
     53  CB         0.7960    8.2260   14.3950 C.3    18  GLU18       0.0388
     54  CG         1.4910    9.3800   15.1200 C.3    18  GLU18       0.1160
     55  CD         0.5950   10.0770   16.1140 C.2    18  GLU18       0.3649
     56  OE1       -0.5930    9.7120   16.2280 O.co2  18  GLU18      -0.2457
     57  OE2        1.0820   10.9840   16.8130 O.co2  18  GLU18      -0.2457
     58  N         10.7190    7.5250   22.9000 N.3    36  ASN36      -0.1225
     59  CA         9.2820    7.4550   23.1170 C.3    36  ASN36       0.1785
     60  C          8.4710    7.1040   21.8960 C.2    36  ASN36       0.2597
     61  O          7.3390    6.6350   22.0060 O.2    36  ASN36      -0.2718
     62  CB         8.7820    8.7730   23.6740 C.3    36  ASN36       0.1169
     63  CG         9.3680    9.0770   25.0310 C.2    36  ASN36       0.2627
     64  OD1       10.2760    9.8930   25.1560 O.2    36  ASN36      -0.2716
     65  ND2        8.8840    8.3840   26.0550 N.am   36  ASN36      -0.0877
     66  N          9.0410    7.3370   20.7240 N.am   37  TRP37      -0.1976
     67  CA         8.3290    7.0710   19.4880 C.3    37  TRP37       0.1640
     68  C          9.1870    6.2580   18.5720 C.2    37  TRP37       0.2290
     69  O         10.1910    6.7320   18.0220 O.2    37  TRP37      -0.2864
     70  CB         7.8840    8.3800   18.8170 C.3    37  TRP37       0.0576
     71  CG         6.8380    9.1020   19.6220 C.ar   37  TRP37       0.0006
     72  CD1        7.0540    9.9280   20.6990 C.ar   37  TRP37       0.0946
     73  CD2        5.4190    9.0030   19.4760 C.ar   37  TRP37       0.0152
     74  NE1        5.8620   10.3300   21.2290 N.ar   37  TRP37      -0.2442
     75  CE2        4.8380    9.7800   20.5010 C.ar   37  TRP37       0.0810
     76  CE3        4.5740    8.3280   18.5760 C.ar   37  TRP37       0.0012
     77  CZ2        3.4550    9.9070   20.6570 C.ar   37  TRP37       0.0191
     78  CZ3        3.1940    8.4540   18.7310 C.ar   37  TRP37       0.0001
     79  CH2        2.6500    9.2410   19.7680 C.ar   37  TRP37       0.0015
     80  N          3.9370    4.9050   20.0160 N.3    50  PRO50      -0.2102
     81  CA         4.5260    5.0790   21.3460 C.3    50  PRO50       0.1504
     82  C          5.1880    3.7890   21.8610 C.2    50  PRO50       0.2576
     83  O          4.6130    2.6990   21.7860 O.2    50  PRO50      -0.2718
     84  CB         3.3260    5.5550   22.1960 C.3    50  PRO50       0.0282
     85  CG         2.1250    5.0290   21.4820 C.3    50  PRO50       0.0208
     86  CD         2.4730    5.1050   20.0250 C.3    50  PRO50       0.0893
     87  N          6.4120    3.9140   22.3600 N.am   51  SER51      -0.1938
     88  CA         7.1660    2.7660   22.8660 C.3    51  SER51       0.2055
     89  C          6.5720    2.1140   24.1130 C.2    51  SER51       0.2643
     90  O          6.8880    0.9650   24.4170 O.2    51  SER51      -0.2714
     91  CB         8.6240    3.1530   23.1270 C.3    51  SER51       0.2130
     92  OG         8.7480    4.1810   24.0970 O.3    51  SER51      -0.2179
     93  N          5.6710    2.8250   24.7940 N.am   52  ASN52      -0.1957
     94  CA         5.0390    2.3240   26.0210 C.3    52  ASN52       0.1819
     95  C          3.7910    1.4880   25.7620 C.2    52  ASN52       0.2621
     96  O          3.1700    0.9520   26.6850 O.2    52  ASN52      -0.2715
     97  CB         4.7700    3.4760   27.0200 C.3    52  ASN52       0.1195
     98  CG         3.8080    4.5450   26.4770 C.2    52  ASN52       0.2630
     99  OD1        3.7880    4.8410   25.2770 O.2    52  ASN52      -0.2716
    100  ND2        3.0210    5.1380   27.3700 N.am   52  ASN52      -0.0877
    101  N          3.4620    1.3440   24.4830 N.am   53  TYR53      -0.1974
    102  CA         2.3040    0.5840   24.0440 C.3    53  TYR53       0.1639
    103  C          2.7000   -0.7990   23.5610 C.2    53  TYR53       0.2290
    104  O          1.8470   -1.5770   23.1690 O.2    53  TYR53      -0.2864
    105  CB         1.6040    1.3260   22.8950 C.3    53  TYR53       0.0560
    106  CG         0.5350    2.2800   23.3580 C.ar   53  TYR53      -0.0198
    107  CD1        0.8510    3.3830   24.1460 C.ar   53  TYR53      -0.0009
    108  CD2       -0.7940    2.0590   23.0440 C.ar   53  TYR53      -0.0009
    109  CE1       -0.1260    4.2290   24.6120 C.ar   53  TYR53       0.0417
    110  CE2       -1.7840    2.9050   23.5040 C.ar   53  TYR53       0.0417
    111  CZ        -1.4450    3.9860   24.2920 C.ar   53  TYR53       0.1957
    112  OH        -2.4360    4.8080   24.7870 O.3    53  TYR53      -0.2866
@<TRIPOS>BOND
     1    52    51    2
     2    49    50    1
     3    42    43    2
     4    42    41    1
     5    51    50    1
     6    50    53    1
     7    41    44    1
     8    41    40    1
     9    53    54    1
    10    44    45    1
    11    40    33   am
    12    54    55    1
    13    45    46    1
    14    34    33    2
    15    47    46   ar
    16    33    32    1
    17    46    48   ar
    18    55    56   ar
    19    55    57   ar
    20    31    32    1
    21    32    35    1
    22    23    22    2
    23    29    27   ar
    24    29    30   ar
    25    27    25   ar
    26    69    68    2
    27    35    36    1
    28    22    21    1
    29    30    28   ar
    30    68    67    1
    31    76    78   ar
    32    76    73   ar
    33    78    79   ar
    34    70    67    1
    35    70    71    1
    36    36    37    1
    37    38    37    2
    38    25    24    1
    39    25    26   ar
    40    37    39   am
    41    24    21    1
    42    19    17   ar
    43    21    20    1
    44    73    71   ar
    45    73    75   ar
    46    67    66    1
    47    20    14   am
    48    28    26   ar
    49    71    72   ar
    50    79    77   ar
    51    80    86    1
    52    80    81    1
    53    86    85    1
    54    17    18   ar
    55    17    16    1
    56    75    77   ar
    57    75    74   ar
    58    72    74   ar
    59    14    13    1
    60    14    15    2
    61    66    60   am
    62    16    13    1
    63    13    12    1
    64    81    82    1
    65    81    84    1
    66    85    84    1
    67     4     3    2
    68    83    82    2
    69    82    87   am
    70    60    61    2
    71    60    59    1
    72    12     3   am
    73     3     2    1
    74    87    88    1
    75    88    91    1
    76    88    89    1
    77   105   106    1
    78   105   102    1
    79    58    59    1
    80   108   106   ar
    81   108   110   ar
    82    59    62    1
    83    91    92    1
    84   104   103    2
    85   106   107   ar
    86   110   111   ar
    87   103   102    1
    88    62    63    1
    89     2     1    1
    90     2     5    1
    91   102   101    1
    92    89    90    2
    93    89    93   am
    94   107   109   ar
    95   111   109   ar
    96   111   112    1
    97   101    95   am
    98     5     6    1
    99    93    94    1
   100    63    64    2
   101    63    65   am
   102    99    98    2
   103    95    94    1
   104    95    96    2
   105     7     6   ar
   106     7     9   ar
   107     6     8   ar
   108    94    97    1
   109    98    97    1
   110    98   100   am
   111     9    11   ar
   112     8    10   ar
   113    11    10   ar
