@<TRIPOS>MOLECULE
tmp/1sesA00.pdb
 171 161 0 0 0
SMALL
GASTEIGER

@<TRIPOS>ATOM
      1  N         42.2150   14.1770   62.7250 N.3   204  HIS204     -0.1241
      2  CA        42.2330   14.0010   61.2920 C.3   204  HIS204      0.1621
      3  C         40.8270   14.2020   60.8080 C.2   204  HIS204      0.2264
      4  O         40.7010   14.8410   59.7750 O.2   204  HIS204     -0.2867
      5  CB        42.7350   12.5960   60.8580 C.3   204  HIS204      0.0745
      6  CG        44.2390   12.4920   61.1180 C.ar  204  HIS204      0.0817
      7  ND1       44.8650   11.9940   62.1870 N.ar  204  HIS204     -0.2268
      8  CD2       45.2170   13.0570   60.3440 C.ar  204  HIS204      0.1154
      9  CE1       46.1460   12.2460   62.1250 C.ar  204  HIS204      0.1986
     10  NE2       46.3400   12.8860   61.0060 N.ar  204  HIS204     -0.2212
     11  N         48.7490    7.8070   59.0620 N.3   225  THR225     -0.1218
     12  CA        49.7510    7.8820   60.0990 C.3   225  THR225      0.1862
     13  C         49.3170    6.8670   61.1150 C.2   225  THR225      0.2287
     14  O         48.1320    6.5900   61.3490 O.2   225  THR225     -0.2866
     15  CB        49.7810    9.3540   60.6050 C.3   225  THR225      0.1770
     16  OG1       50.8280    9.3170   61.5430 O.3   225  THR225     -0.2211
     17  CG2       48.5220    9.9290   61.2100 C.3   225  THR225      0.0375
     18  N         49.7650    7.1130   64.1330 N.3   227  GLU227     -0.1245
     19  CA        49.2340    7.9250   65.1870 C.3   227  GLU227      0.1567
     20  C         47.7350    7.7440   65.3130 C.2   227  GLU227      0.2260
     21  O         47.2410    7.7440   66.4320 O.2   227  GLU227     -0.2867
     22  CB        49.5970    9.3200   64.8470 C.3   227  GLU227      0.0388
     23  CG        49.2220   10.4110   65.8120 C.3   227  GLU227      0.1160
     24  CD        48.8880   11.6880   65.0470 C.2   227  GLU227      0.3649
     25  OE1       49.3280   11.8500   63.8960 O.co2 227  GLU227     -0.2457
     26  OE2       48.1690   12.5210   65.5980 O.co2 227  GLU227     -0.2457
     27  N         47.8230    8.0940   51.8860 N.3   256  ARG256     -0.1245
     28  CA        47.3940    9.4720   51.8670 C.3   256  ARG256      0.1563
     29  C         46.8150    9.7560   50.5250 C.2   256  ARG256      0.2260
     30  O         47.4580    9.5070   49.5140 O.2   256  ARG256     -0.2867
     31  CB        48.5420   10.4120   52.0600 C.3   256  ARG256      0.0307
     32  CG        48.5540   11.0760   53.3900 C.3   256  ARG256      0.0489
     33  CD        49.4540   10.5440   54.5060 C.3   256  ARG256      0.2205
     34  NE        49.8360   11.7810   55.1740 N.pl3 256  ARG256     -0.0865
     35  CZ        50.5420   11.9260   56.2460 C.cat 256  ARG256      0.5346
     36  NH1       51.0140   10.9460   56.9360 N.pl3 256  ARG256      0.1354
     37  NH2       50.9350   13.1310   56.4990 N.pl3 256  ARG256      0.1354
     38  N         46.4710   12.4870   49.1110 N.3   258  GLU258     -0.1245
     39  CA        47.2660   13.5790   48.6290 C.3   258  GLU258      0.1567
     40  C         46.4260   14.6200   47.8710 C.2   258  GLU258      0.2260
     41  O         46.9160   15.3150   46.9870 O.2   258  GLU258     -0.2867
     42  CB        48.3600   13.0070   47.7730 C.3   258  GLU258      0.0388
     43  CG        49.5150   13.9320   47.8760 C.3   258  GLU258      0.1160
     44  CD        50.5130   13.4410   48.8840 C.2   258  GLU258      0.3649
     45  OE1       51.3280   12.6040   48.4820 O.co2 258  GLU258     -0.2457
     46  OE2       50.4760   13.9060   50.0250 O.co2 258  GLU258     -0.2457
     47  N         59.1590   11.8530   46.8110 N.3   270  MET270     -0.1230
     48  CA        58.8870   12.8260   47.8190 C.3   270  MET270      0.1702
     49  C         57.4670   12.7810   48.2940 C.2   270  MET270      0.2592
     50  O         57.2490   12.9020   49.4890 O.2   270  MET270     -0.2718
     51  CB        59.1930   14.1510   47.2690 C.3   270  MET270      0.0401
     52  CG        59.7520   15.0660   48.3270 C.3   270  MET270      0.0596
     53  SD        61.4860   14.8300   48.7900 S.3   270  MET270     -0.1393
     54  CE        62.1290   14.0890   47.3480 C.3   270  MET270      0.0692
     55  N         56.4680   12.5930   47.4530 N.am  271  ARG271     -0.1966
     56  CA        55.0750   12.6450   47.8280 C.3   271  ARG271      0.1729
     57  C         54.3830   11.5210   47.1000 C.2   271  ARG271      0.2616
     58  O         54.1980   11.5710   45.8910 O.2   271  ARG271     -0.2715
     59  CB        54.4860   13.9710   47.4300 C.3   271  ARG271      0.0348
     60  CG        54.0830   14.6730   48.6910 C.3   271  ARG271      0.0492
     61  CD        53.4350   16.0290   48.5310 C.3   271  ARG271      0.2205
     62  NE        52.1300   15.9710   47.8770 N.pl3 271  ARG271     -0.0865
     63  CZ        51.3740   17.0770   47.7390 C.cat 271  ARG271      0.5346
     64  NH1       51.7830   18.2720   48.1900 N.pl3 271  ARG271      0.1354
     65  NH2       50.1810   16.9950   47.1380 N.pl3 271  ARG271      0.1354
     66  N         54.0800   10.4420   47.8150 N.am  272  VAL272     -0.1977
     67  CA        53.4690    9.2700   47.2300 C.3   272  VAL272      0.1596
     68  C         52.2280    8.9420   48.0220 C.2   272  VAL272      0.2287
     69  O         52.0350    9.4450   49.1290 O.2   272  VAL272     -0.2864
     70  CB        54.4840    8.1130   47.2580 C.3   272  VAL272      0.0276
     71  CG1       55.6070    8.4610   46.2670 C.3   272  VAL272      0.0022
     72  CG2       55.1050    7.9110   48.6490 C.3   272  VAL272      0.0022
     73  N         53.3370    4.9350   51.8040 N.3   275  PHE275     -0.1241
     74  CA        54.7000    4.9540   52.1840 C.3   275  PHE275      0.1605
     75  C         54.7420    4.1840   53.4960 C.2   275  PHE275      0.2264
     76  O         53.7390    3.5950   53.9350 O.2   275  PHE275     -0.2867
     77  CB        55.1080    6.4160   52.2830 C.3   275  PHE275      0.0534
     78  CG        54.4160    7.3110   53.3130 C.ar  275  PHE275     -0.0203
     79  CD1       53.2470    7.9700   52.9780 C.ar  275  PHE275     -0.0042
     80  CD2       55.0160    7.5130   54.5510 C.ar  275  PHE275     -0.0042
     81  CE1       52.7020    8.8360   53.8900 C.ar  275  PHE275     -0.0003
     82  CE2       54.4520    8.3890   55.4590 C.ar  275  PHE275     -0.0003
     83  CZ        53.3040    9.0480   55.1260 C.ar  275  PHE275     -0.0000
     84  N         55.8970    4.2890   57.5650 N.3   277  LYS277     -0.1245
     85  CA        56.2510    5.2430   58.5700 C.3   277  LYS277      0.1561
     86  C         56.3170    4.5870   59.9500 C.2   277  LYS277      0.2260
     87  O         55.4380    3.7930   60.3220 O.2   277  LYS277     -0.2867
     88  CB        55.2110    6.3810   58.4620 C.3   277  LYS277      0.0271
     89  CG        55.7550    7.4710   59.3740 C.3   277  LYS277      0.0035
     90  CD        55.1120    8.8370   59.1990 C.3   277  LYS277      0.0206
     91  CE        53.5990    8.7960   59.2120 C.3   277  LYS277      0.1093
     92  NZ        53.1400    8.1800   60.4460 N.3   277  LYS277     -0.1314
     93  N         56.4010    5.6560   63.7610 N.3   279  GLU279     -0.1245
     94  CA        55.8790    6.7950   64.5010 C.3   279  GLU279      0.1567
     95  C         56.1670    6.7600   65.9800 C.2   279  GLU279      0.2260
     96  O         56.0020    5.6990   66.5670 O.2   279  GLU279     -0.2867
     97  CB        54.4150    6.8030   64.2860 C.3   279  GLU279      0.0388
     98  CG        53.5880    7.7890   65.0400 C.3   279  GLU279      0.1160
     99  CD        53.6540    9.2100   64.5250 C.2   279  GLU279      0.3649
    100  OE1       54.3950    9.5090   63.5990 O.co2 279  GLU279     -0.2457
    101  OE2       52.9410   10.0320   65.0680 O.co2 279  GLU279     -0.2457
    102  N         60.9270   18.5860   54.6730 N.3   345  GLU345     -0.1231
    103  CA        60.4130   18.0330   55.8920 C.3   345  GLU345      0.1699
    104  C         60.5810   16.5280   55.9420 C.2   345  GLU345      0.2593
    105  O         60.2050   15.8750   54.9740 O.2   345  GLU345     -0.2718
    106  CB        58.9480   18.4000   55.9860 C.3   345  GLU345      0.0402
    107  CG        58.3790   17.9410   57.2990 C.3   345  GLU345      0.1161
    108  CD        56.8760   17.7680   57.2770 C.2   345  GLU345      0.3649
    109  OE1       56.2200   18.6450   56.6990 O.co2 345  GLU345     -0.2457
    110  OE2       56.3720   16.7750   57.8340 O.co2 345  GLU345     -0.2457
    111  N         61.1210   15.9540   57.0220 N.am  346  THR346     -0.1939
    112  CA        61.1520   14.5240   57.1500 C.3   346  THR346      0.2028
    113  C         60.4150   14.0030   58.3820 C.2   346  THR346      0.2642
    114  O         59.9390   12.8490   58.4190 O.2   346  THR346     -0.2714
    115  CB        62.5790   14.0830   57.1810 C.3   346  THR346      0.1808
    116  OG1       63.2320   14.8180   58.1770 O.3   346  THR346     -0.2208
    117  CG2       63.2040   14.2470   55.8320 C.3   346  THR346      0.0379
    118  N         60.2630   14.8700   59.4000 N.am  347  HIS347     -0.1959
    119  CA        59.6830   14.5590   60.6970 C.3   347  HIS347      0.1787
    120  C         58.8560   15.7300   61.1150 C.2   347  HIS347      0.2620
    121  O         59.2100   16.8800   60.8480 O.2   347  HIS347     -0.2715
    122  CB        60.7410   14.3660   61.7560 C.3   347  HIS347      0.0785
    123  CG        61.7770   13.3020   61.4650 C.ar  347  HIS347      0.0821
    124  ND1       62.7470   13.2830   60.5440 N.ar  347  HIS347     -0.2267
    125  CD2       61.8270   12.1020   62.1240 C.ar  347  HIS347      0.1154
    126  CE1       63.3620   12.1270   60.6200 C.ar  347  HIS347      0.1986
    127  NE2       62.7990   11.4290   61.5720 N.ar  347  HIS347     -0.2212
    128  N         57.7480   15.5110   61.7690 N.am  348  SER348     -0.1950
    129  CA        57.0100   16.6420   62.2900 C.3   348  SER348      0.1924
    130  C         56.5700   16.2550   63.7060 C.2   348  SER348      0.2314
    131  O         55.9590   15.2050   63.8910 O.2   348  SER348     -0.2863
    132  CB        55.9120   16.8360   61.3370 C.3   348  SER348      0.2116
    133  OG        55.2610   18.0400   61.6700 O.3   348  SER348     -0.2180
    134  N         53.4150   13.4810   69.5080 N.3   378  ASN378     -0.1240
    135  CA        53.8310   12.5240   68.5050 C.3   378  ASN378      0.1653
    136  C         54.9070   13.1460   67.5960 C.2   378  ASN378      0.2266
    137  O         55.1040   14.3680   67.4980 O.2   378  ASN378     -0.2867
    138  CB        52.6220   12.0530   67.6690 C.3   378  ASN378      0.1155
    139  CG        52.0240   13.1160   66.7700 C.2   378  ASN378      0.2627
    140  OD1       52.6620   13.6100   65.8430 O.2   378  ASN378     -0.2716
    141  ND2       50.7730   13.4820   66.8750 N.am  378  ASN378     -0.0877
    142  N         57.4080   11.8330   63.9190 N.3   380  THR380     -0.1218
    143  CA        57.8320   10.8030   62.9700 C.3   380  THR380      0.1862
    144  C         59.0820   10.1730   63.5800 C.2   380  THR380      0.2287
    145  O         59.8460   10.9220   64.1840 O.2   380  THR380     -0.2866
    146  CB        58.2030   11.4440   61.5760 C.3   380  THR380      0.1770
    147  OG1       57.2070   12.4120   61.2010 O.3   380  THR380     -0.2211
    148  CG2       58.2330   10.4020   60.4720 C.3   380  THR380      0.0375
    149  N         60.2510    7.9570   58.0580 N.3   383  ALA383     -0.1245
    150  CA        59.2730    7.5920   57.0530 C.3   383  ALA383      0.1562
    151  C         60.0150    7.2560   55.7660 C.2   383  ALA383      0.2260
    152  O         60.9060    8.0490   55.3920 O.2   383  ALA383     -0.2867
    153  CB        58.3380    8.7490   56.7090 C.3   383  ALA383      0.0290
    154  N         59.2330    6.5730   51.4910 N.3   385  PRO385     -0.2102
    155  CA        60.4670    6.7100   50.7490 C.3   385  PRO385      0.1504
    156  C         61.0390    8.0890   50.7950 C.2   385  PRO385      0.2575
    157  O         62.2100    8.1540   50.4630 O.2   385  PRO385     -0.2718
    158  CB        60.1160    6.2950   49.3920 C.3   385  PRO385      0.0282
    159  CG        58.8060    7.0070   49.2500 C.3   385  PRO385      0.0208
    160  CD        58.1360    6.6390   50.5420 C.3   385  PRO385      0.0893
    161  N         60.3770    9.1340   51.3080 N.am  386  ARG386     -0.1980
    162  CA        60.9620   10.4840   51.3250 C.3   386  ARG386      0.1597
    163  C         62.3500   10.5500   51.9070 C.2   386  ARG386      0.2287
    164  O         63.1630   11.2760   51.3290 O.2   386  ARG386     -0.2864
    165  CB        60.0850   11.4930   52.0920 C.3   386  ARG386      0.0334
    166  CG        60.6540   12.8860   51.9880 C.3   386  ARG386      0.0492
    167  CD        59.8280   14.0000   52.5740 C.3   386  ARG386      0.2205
    168  NE        58.6110   14.2390   51.8390 N.pl3 386  ARG386     -0.0865
    169  CZ        57.5670   14.8530   52.3980 C.cat 386  ARG386      0.5346
    170  NH1       57.6090   15.2810   53.6650 N.pl3 386  ARG386      0.1354
    171  NH2       56.4120   14.9720   51.7240 N.pl3 386  ARG386      0.1354
@<TRIPOS>BOND
     1    58    57    2
     2    71    70    1
     3    47    48    1
     4    41    40    2
     5    57    66   am
     6    57    56    1
     7    65    63    1
     8    67    70    1
     9    67    66    1
    10    67    68    1
    11    70    72    1
    12    51    48    1
    13    51    52    1
    14    54    53    1
    15    59    56    1
    16    59    60    1
    17    55    56    1
    18    55    49   am
    19    63    62    2
    20    63    64    1
    21    42    43    1
    22    42    39    1
    23    48    49    1
    24    40    39    1
    25    43    44    1
    26    62    61    1
    27    68    69    2
    28    49    50    2
    29    52    53    1
    30    45    44   ar
    31    61    60    1
    32    39    38    1
    33    44    46   ar
    34   159   158    1
    35   159   160    1
    36   158   155    1
    37    30    29    2
    38   157   156    2
    39    29    28    1
    40   160   154    1
    41   155   156    1
    42   155   154    1
    43   156   161   am
    44   161   162    1
    45   162   163    1
    46   162   165    1
    47   164   163    2
    48   171   169    1
    49    73    74    1
    50   168   169    2
    51   168   167    1
    52    28    27    1
    53    28    31    1
    54   166   165    1
    55   166   167    1
    56    31    32    1
    57    74    77    1
    58    74    75    1
    59    77    78    1
    60   169   170    1
    61    79    78   ar
    62    79    81   ar
    63    78    80   ar
    64    32    33    1
    65    75    76    2
    66    81    83   ar
    67    33    34    1
    68    80    82   ar
    69   102   103    1
    70   105   104    2
    71    83    82   ar
    72    34    35    2
    73   152   151    2
    74   151   150    1
    75   117   115    1
    76   103   104    1
    77   103   106    1
    78   104   111   am
    79   106   107    1
    80    35    37    1
    81    35    36    1
    82   109   108   ar
    83   153   150    1
    84   111   112    1
    85   150   149    1
    86   112   115    1
    87   112   113    1
    88   115   116    1
    89   108   107    1
    90   108   110   ar
    91    84    85    1
    92   113   114    2
    93   113   118   am
    94    88    85    1
    95    88    89    1
    96    85    86    1
    97    11    12    1
    98    90    91    1
    99    90    89    1
   100    91    92    1
   101   118   119    1
   102     4     3    2
   103    86    87    2
   104    12    15    1
   105    12    13    1
   106     8    10   ar
   107     8     6   ar
   108   148   146    1
   109   124   126   ar
   110   124   123   ar
   111    15    17    1
   112    15    16    1
   113   126   127   ar
   114   119   120    1
   115   119   122    1
   116     3     2    1
   117   121   120    2
   118     5     6    1
   119     5     2    1
   120    10     9   ar
   121    13    14    2
   122   120   128   am
   123     6     7   ar
   124   147   146    1
   125     2     1    1
   126   132   133    1
   127   132   129    1
   128   123   122    1
   129   123   125   ar
   130   127   125   ar
   131   146   143    1
   132   128   129    1
   133     9     7   ar
   134   129   130    1
   135   143   144    1
   136   143   142    1
   137   144   145    2
   138   100    99   ar
   139   130   131    2
   140    93    94    1
   141    25    24   ar
   142    18    19    1
   143    97    94    1
   144    97    98    1
   145    94    95    1
   146    99    98    1
   147    99   101   ar
   148    22    19    1
   149    22    23    1
   150    24    26   ar
   151    24    23    1
   152    19    20    1
   153    20    21    2
   154   140   139    2
   155    95    96    2
   156   139   141   am
   157   139   138    1
   158   137   136    2
   159   136   135    1
   160   138   135    1
   161   135   134    1
