@<TRIPOS>MOLECULE
tmp/1setA00.pdb
 184 174 0 0 0
SMALL
GASTEIGER

@<TRIPOS>ATOM
      1  N         42.8840   14.6920   63.2460 N.3   204  HIS204     -0.1241
      2  CA        42.9490   14.5770   61.7940 C.3   204  HIS204      0.1621
      3  C         41.5370   14.7630   61.3050 C.2   204  HIS204      0.2264
      4  O         41.3790   15.3290   60.2470 O.2   204  HIS204     -0.2867
      5  CB        43.5160   13.1900   61.2970 C.3   204  HIS204      0.0745
      6  CG        45.0340   13.0520   61.5580 C.ar  204  HIS204      0.0817
      7  ND1       45.6790   12.4250   62.5430 N.ar  204  HIS204     -0.2268
      8  CD2       46.0320   13.6450   60.8140 C.ar  204  HIS204      0.1154
      9  CE1       46.9780   12.6090   62.4430 C.ar  204  HIS204      0.1986
     10  NE2       47.1790   13.3470   61.3950 N.ar  204  HIS204     -0.2212
     11  N         49.5100    8.3300   59.4490 N.3   225  THR225     -0.1218
     12  CA        50.5970    8.2690   60.4300 C.3   225  THR225      0.1862
     13  C         50.1710    7.2890   61.5030 C.2   225  THR225      0.2287
     14  O         48.9900    7.0980   61.7890 O.2   225  THR225     -0.2866
     15  CB        50.8550    9.7050   61.0270 C.3   225  THR225      0.1770
     16  OG1       51.7930    9.5650   62.1000 O.3   225  THR225     -0.2211
     17  CG2       49.6000   10.4020   61.4430 C.3   225  THR225      0.0375
     18  N         50.5520    7.7620   64.6140 N.3   227  GLU227     -0.1245
     19  CA        49.9280    8.5820   65.6510 C.3   227  GLU227      0.1567
     20  C         48.4250    8.3220   65.7470 C.2   227  GLU227      0.2260
     21  O         47.9120    8.2420   66.8600 O.2   227  GLU227     -0.2867
     22  CB        50.1870   10.0220   65.3160 C.3   227  GLU227      0.0388
     23  CG        49.5870   11.0900   66.2280 C.3   227  GLU227      0.1160
     24  CD        49.4300   12.4890   65.6220 C.2   227  GLU227      0.3649
     25  OE1       49.7320   12.7240   64.4490 O.co2 227  GLU227     -0.2457
     26  OE2       49.0140   13.3890   66.3380 O.co2 227  GLU227     -0.2457
     27  N         48.7390    8.5700   52.2860 N.3   256  ARG256     -0.1245
     28  CA        48.2640    9.9360   52.2160 C.3   256  ARG256      0.1563
     29  C         47.7080   10.2760   50.8500 C.2   256  ARG256      0.2260
     30  O         48.3680   10.0820   49.8270 O.2   256  ARG256     -0.2867
     31  CB        49.4060   10.8700   52.5860 C.3   256  ARG256      0.0307
     32  CG        49.2390   11.1300   54.0310 C.3   256  ARG256      0.0489
     33  CD        50.4920   10.9410   54.8480 C.3   256  ARG256      0.2205
     34  NE        50.7850   12.2020   55.4680 N.pl3 256  ARG256     -0.0865
     35  CZ        51.3860   12.3670   56.6010 C.cat 256  ARG256      0.5346
     36  NH1       51.8090   11.4250   57.3800 N.pl3 256  ARG256      0.1354
     37  NH2       51.6980   13.5730   56.8710 N.pl3 256  ARG256      0.1354
     38  N         47.3070   13.1360   49.5750 N.3   258  GLU258     -0.1245
     39  CA        48.1250   14.2360   49.0840 C.3   258  GLU258      0.1567
     40  C         47.3180   15.1760   48.1940 C.2   258  GLU258      0.2260
     41  O         47.8210   15.8160   47.2710 O.2   258  GLU258     -0.2867
     42  CB        49.3650   13.7400   48.2950 C.3   258  GLU258      0.0388
     43  CG        50.5490   13.2780   49.1250 C.3   258  GLU258      0.1160
     44  CD        50.9760   14.2060   50.2560 C.2   258  GLU258      0.3649
     45  OE1       50.8960   15.4150   50.1030 O.co2 258  GLU258     -0.2457
     46  OE2       51.3910   13.7310   51.3140 O.co2 258  GLU258     -0.2457
     47  N         60.0390   12.3680   47.4280 N.3   270  MET270     -0.1230
     48  CA        59.6460   13.3280   48.4300 C.3   270  MET270      0.1702
     49  C         58.1890   13.2740   48.8040 C.2   270  MET270      0.2592
     50  O         57.9500   13.2400   50.0010 O.2   270  MET270     -0.2718
     51  CB        59.9770   14.7290   47.9700 C.3   270  MET270      0.0401
     52  CG        61.4380   14.9560   47.6820 C.3   270  MET270      0.0596
     53  SD        62.6390   15.0590   49.0100 S.3   270  MET270     -0.1393
     54  CE        61.6430   16.2580   49.8330 C.3   270  MET270      0.0692
     55  N         57.1680   13.2620   47.9530 N.am  271  ARG271     -0.1966
     56  CA        55.8120   13.2330   48.4300 C.3   271  ARG271      0.1729
     57  C         55.1050   12.1100   47.6740 C.2   271  ARG271      0.2616
     58  O         54.7800   12.2340   46.5020 O.2   271  ARG271     -0.2715
     59  CB        55.2280   14.6360   48.2000 C.3   271  ARG271      0.0348
     60  CG        54.1900   15.1080   49.1960 C.3   271  ARG271      0.0492
     61  CD        53.9840   16.6210   49.1420 C.3   271  ARG271      0.2205
     62  NE        53.2010   16.9340   47.9540 N.pl3 271  ARG271     -0.0865
     63  CZ        52.0490   17.6200   48.0020 C.cat 271  ARG271      0.5346
     64  NH1       51.5280   18.0860   49.1300 N.pl3 271  ARG271      0.1354
     65  NH2       51.3280   17.7880   46.9040 N.pl3 271  ARG271      0.1354
     66  N         54.9070   10.9460   48.3310 N.am  272  VAL272     -0.1977
     67  CA        54.2920    9.7900   47.7140 C.3   272  VAL272      0.1596
     68  C         53.0410    9.4250   48.4620 C.2   272  VAL272      0.2287
     69  O         52.8180    9.8580   49.5870 O.2   272  VAL272     -0.2864
     70  CB        55.2600    8.5740   47.6940 C.3   272  VAL272      0.0276
     71  CG1       56.3780    8.8840   46.7070 C.3   272  VAL272      0.0022
     72  CG2       55.8900    8.2890   49.0360 C.3   272  VAL272      0.0022
     73  N         54.2560    5.3350   52.2340 N.3   275  PHE275     -0.1241
     74  CA        55.6170    5.3830   52.6520 C.3   275  PHE275      0.1605
     75  C         55.6540    4.5920   53.9560 C.2   275  PHE275      0.2264
     76  O         54.6510    3.9780   54.3620 O.2   275  PHE275     -0.2867
     77  CB        55.9890    6.8500   52.7980 C.3   275  PHE275      0.0534
     78  CG        55.2870    7.7300   53.8250 C.ar  275  PHE275     -0.0203
     79  CD1       54.1240    8.3830   53.4990 C.ar  275  PHE275     -0.0042
     80  CD2       55.8480    7.9310   55.0690 C.ar  275  PHE275     -0.0042
     81  CE1       53.5300    9.2340   54.4030 C.ar  275  PHE275     -0.0003
     82  CE2       55.2470    8.7800   55.9680 C.ar  275  PHE275     -0.0003
     83  CZ        54.0940    9.4300   55.6360 C.ar  275  PHE275     -0.0000
     84  N         56.8610    4.7270   58.1240 N.3   277  LYS277     -0.1245
     85  CA        57.2750    5.6690   59.1440 C.3   277  LYS277      0.1561
     86  C         57.2990    4.9730   60.4970 C.2   277  LYS277      0.2260
     87  O         56.4470    4.1200   60.7960 O.2   277  LYS277     -0.2867
     88  CB        56.3040    6.8710   59.1900 C.3   277  LYS277      0.0271
     89  CG        56.8910    7.9280   60.1260 C.3   277  LYS277      0.0035
     90  CD        56.1920    9.2530   60.0880 C.3   277  LYS277      0.0206
     91  CE        54.6890    9.1120   60.0150 C.3   277  LYS277      0.1093
     92  NZ        54.1320    8.4340   61.1700 N.3   277  LYS277     -0.1314
     93  N         57.1990    6.0730   64.3390 N.3   279  GLU279     -0.1245
     94  CA        56.6860    7.1960   65.1470 C.3   279  GLU279      0.1567
     95  C         57.0240    7.2230   66.6160 C.2   279  GLU279      0.2260
     96  O         56.9260    6.1930   67.2610 O.2   279  GLU279     -0.2867
     97  CB        55.2020    7.1870   65.0040 C.3   279  GLU279      0.0388
     98  CG        54.5160    8.3230   65.6340 C.3   279  GLU279      0.1160
     99  CD        54.4580    9.5950   64.8400 C.2   279  GLU279      0.3649
    100  OE1       55.3010    9.8160   63.9950 O.co2 279  GLU279     -0.2457
    101  OE2       53.5550   10.3640   65.0850 O.co2 279  GLU279     -0.2457
    102  N         61.8270   19.2780   55.1120 N.3   345  GLU345     -0.1231
    103  CA        61.2700   18.6350   56.2880 C.3   345  GLU345      0.1699
    104  C         61.4730   17.1270   56.3550 C.2   345  GLU345      0.2593
    105  O         61.1660   16.4540   55.3790 O.2   345  GLU345     -0.2718
    106  CB        59.7840   18.9050   56.3460 C.3   345  GLU345      0.0402
    107  CG        59.1630   18.5410   57.6790 C.3   345  GLU345      0.1161
    108  CD        57.6880   18.2940   57.5590 C.2   345  GLU345      0.3649
    109  OE1       57.0160   19.1510   56.9740 O.co2 345  GLU345     -0.2457
    110  OE2       57.2340   17.2430   58.0190 O.co2 345  GLU345     -0.2457
    111  N         62.0290   16.5770   57.4410 N.am  346  THR346     -0.1939
    112  CA        62.0530   15.1490   57.5950 C.3   346  THR346      0.2028
    113  C         61.2640   14.6680   58.8270 C.2   346  THR346      0.2642
    114  O         60.7290   13.5480   58.8620 O.2   346  THR346     -0.2714
    115  CB        63.5100   14.6830   57.6800 C.3   346  THR346      0.1808
    116  OG1       64.1390   15.5320   58.6070 O.3   346  THR346     -0.2208
    117  CG2       64.2150   14.6740   56.3340 C.3   346  THR346      0.0379
    118  N         61.1440   15.5170   59.8610 N.am  347  HIS347     -0.1959
    119  CA        60.6020   15.1410   61.1520 C.3   347  HIS347      0.1787
    120  C         59.7440   16.2700   61.6590 C.2   347  HIS347      0.2620
    121  O         60.1360   17.4210   61.4870 O.2   347  HIS347     -0.2715
    122  CB        61.7480   14.8900   62.1190 C.3   347  HIS347      0.0785
    123  CG        62.7830   13.8050   61.8190 C.ar  347  HIS347      0.0821
    124  ND1       63.7660   13.7820   60.9360 N.ar  347  HIS347     -0.2267
    125  CD2       62.8880   12.6330   62.5270 C.ar  347  HIS347      0.1154
    126  CE1       64.4490   12.6670   61.0980 C.ar  347  HIS347      0.1986
    127  NE2       63.9160   11.9780   62.0550 N.ar  347  HIS347     -0.2212
    128  N         58.5950   16.0390   62.2690 N.am  348  SER348     -0.1950
    129  CA        57.7650   17.1150   62.7770 C.3   348  SER348      0.1924
    130  C         57.3300   16.7780   64.2240 C.2   348  SER348      0.2314
    131  O         56.6600   15.7680   64.3860 O.2   348  SER348     -0.2863
    132  CB        56.6200   17.2160   61.8300 C.3   348  SER348      0.2116
    133  OG        56.0660   18.5100   61.7560 O.3   348  SER348     -0.2180
    134  N         55.5110   17.6900   67.8190 N.3   350  SER350     -0.1217
    135  CA        54.3530   18.3920   68.3070 C.3   350  SER350      0.1889
    136  C         54.0720   18.1410   69.7760 C.2   350  SER350      0.2288
    137  O         54.4450   17.0760   70.2850 O.2   350  SER350     -0.2866
    138  CB        53.2010   17.9710   67.5270 C.3   350  SER350      0.2089
    139  OG        53.4330   18.3980   66.2060 O.3   350  SER350     -0.2183
    140  N         54.2420   13.8430   70.0270 N.3   378  ASN378     -0.1240
    141  CA        54.6410   12.8900   68.9940 C.3   378  ASN378      0.1653
    142  C         55.7210   13.5230   68.1270 C.2   378  ASN378      0.2266
    143  O         55.8100   14.7520   68.0160 O.2   378  ASN378     -0.2867
    144  CB        53.4840   12.4460   68.0430 C.3   378  ASN378      0.1155
    145  CG        52.8660   13.5400   67.1870 C.2   378  ASN378      0.2627
    146  OD1       53.4840   13.9970   66.2420 O.2   378  ASN378     -0.2716
    147  ND2       51.6620   14.0140   67.3110 N.am  378  ASN378     -0.0877
    148  N         58.2740   12.3020   64.4720 N.3   380  THR380     -0.1218
    149  CA        58.7200   11.2690   63.5710 C.3   380  THR380      0.1862
    150  C         59.9430   10.6480   64.2260 C.2   380  THR380      0.2287
    151  O         60.6390   11.3750   64.9250 O.2   380  THR380     -0.2866
    152  CB        59.1320   11.9020   62.1960 C.3   380  THR380      0.1770
    153  OG1       58.0760   12.7900   61.8870 O.3   380  THR380     -0.2211
    154  CG2       59.3150   10.9050   61.0300 C.3   380  THR380      0.0375
    155  N         61.0900    8.4930   58.5670 N.3   383  ALA383     -0.1231
    156  CA        60.0780    8.1620   57.5700 C.3   383  ALA383      0.1694
    157  C         60.8340    7.8720   56.2670 C.2   383  ALA383      0.2593
    158  O         61.8440    8.5530   56.0060 O.2   383  ALA383     -0.2718
    159  CB        59.1380    9.3230   57.3080 C.3   383  ALA383      0.0304
    160  N         60.4830    6.8580   55.4480 N.am  384  THR384     -0.1940
    161  CA        61.1580    6.6140   54.1820 C.3   384  THR384      0.2013
    162  C         59.9930    6.6550   53.1920 C.2   384  THR384      0.2484
    163  O         58.8710    6.3070   53.5890 O.2   384  THR384     -0.2729
    164  CB        61.8960    5.2260   54.1020 C.3   384  THR384      0.1807
    165  OG1       60.8840    4.2540   54.1700 O.3   384  THR384     -0.2208
    166  CG2       62.9590    5.0030   55.1500 C.3   384  THR384      0.0379
    167  N         60.1490    7.0410   51.9080 N.am  385  PRO385     -0.2715
    168  CA        61.4470    7.1610   51.2510 C.3   385  PRO385      0.1536
    169  C         62.0740    8.5570   51.2530 C.2   385  PRO385      0.2598
    170  O         63.2370    8.7120   50.8430 O.2   385  PRO385     -0.2715
    171  CB        61.1550    6.6060   49.8770 C.3   385  PRO385      0.0310
    172  CG        59.8190    7.2660   49.6260 C.3   385  PRO385      0.0237
    173  CD        59.0700    7.1320   50.9410 C.3   385  PRO385      0.0939
    174  N         61.3800    9.5610   51.7830 N.am  386  ARG386     -0.1978
    175  CA        61.9160   10.9000   51.7760 C.3   386  ARG386      0.1597
    176  C         63.2760   10.9950   52.4010 C.2   386  ARG386      0.2287
    177  O         64.0830   11.7350   51.8330 O.2   386  ARG386     -0.2864
    178  CB        60.9630   11.8290   52.4710 C.3   386  ARG386      0.0334
    179  CG        61.5120   13.2290   52.4110 C.3   386  ARG386      0.0492
    180  CD        60.7350   14.1950   53.2040 C.3   386  ARG386      0.2205
    181  NE        59.4030   14.3120   52.6880 N.pl3 386  ARG386     -0.0865
    182  CZ        58.8540   15.5090   52.5390 C.cat 386  ARG386      0.5346
    183  NH1       59.5180   16.6290   52.8450 N.pl3 386  ARG386      0.1354
    184  NH2       57.5960   15.5810   52.1110 N.pl3 386  ARG386      0.1354
@<TRIPOS>BOND
     1    58    57    2
     2    71    70    1
     3    65    63    1
     4    41    40    2
     5    47    48    1
     6    57    66   am
     7    57    56    1
     8    52    51    1
     9    52    53    1
    10    70    67    1
    11    70    72    1
    12    67    66    1
    13    67    68    1
    14    55    56    1
    15    55    49   am
    16    62    63    2
    17    62    61    1
    18    51    48    1
    19    63    64    1
    20    40    39    1
    21    59    56    1
    22    59    60    1
    23    42    39    1
    24    42    43    1
    25    48    49    1
    26    68    69    2
    27    49    50    2
    28    53    54    1
    29    39    38    1
    30    43    44    1
    31    61    60    1
    32   172   171    1
    33   172   173    1
    34    30    29    2
    35   171   168    1
    36    45    44   ar
    37    44    46   ar
    38   170   169    2
    39    29    28    1
    40   173   167    1
    41   168   169    1
    42   168   167    1
    43   169   174   am
    44   175   174    1
    45   175   176    1
    46   175   178    1
    47   177   176    2
    48   167   162   am
    49   184   182    1
    50    28    27    1
    51    28    31    1
    52    73    74    1
    53   179   178    1
    54   179   180    1
    55   182   181    2
    56   182   183    1
    57    31    32    1
    58    74    77    1
    59    74    75    1
    60   181   180    1
    61    77    78    1
    62   162   163    2
    63   162   161    1
    64    79    78   ar
    65    79    81   ar
    66    78    80   ar
    67    75    76    2
    68    32    33    1
    69   164   165    1
    70   164   161    1
    71   164   166    1
    72   161   160    1
    73    81    83   ar
    74    33    34    1
    75    80    82   ar
    76   102   103    1
    77   105   104    2
    78   160   157   am
    79    34    35    2
    80    83    82   ar
    81   158   157    2
    82   157   156    1
    83   103   106    1
    84   103   104    1
    85   117   115    1
    86   106   107    1
    87   104   111   am
    88    35    37    1
    89    35    36    1
    90   109   108   ar
    91   159   156    1
    92   111   112    1
    93   108   107    1
    94   108   110   ar
    95   156   155    1
    96   112   115    1
    97   112   113    1
    98   115   116    1
    99    84    85    1
   100   113   114    2
   101   113   118   am
   102    85    88    1
   103    85    86    1
   104    88    89    1
   105    11    12    1
   106   118   119    1
   107    91    90    1
   108    91    92    1
   109    90    89    1
   110     4     3    2
   111    12    15    1
   112    12    13    1
   113    86    87    2
   114     8    10   ar
   115     8     6   ar
   116   124   126   ar
   117   124   123   ar
   118    15    17    1
   119    15    16    1
   120   154   152    1
   121   126   127   ar
   122   119   120    1
   123   119   122    1
   124     5     6    1
   125     5     2    1
   126     3     2    1
   127    10     9   ar
   128   121   120    2
   129    13    14    2
   130     6     7   ar
   131   120   128   am
   132   133   132    1
   133     2     1    1
   134   123   122    1
   135   123   125   ar
   136   132   129    1
   137   153   152    1
   138   127   125   ar
   139   152   149    1
   140   128   129    1
   141     9     7   ar
   142   129   130    1
   143   149   150    1
   144   149   148    1
   145   100    99   ar
   146   130   131    2
   147   150   151    2
   148    93    94    1
   149    25    24   ar
   150    18    19    1
   151    99   101   ar
   152    99    98    1
   153    97    94    1
   154    97    98    1
   155    94    95    1
   156    22    19    1
   157    22    23    1
   158    24    23    1
   159    24    26   ar
   160    19    20    1
   161    20    21    2
   162   139   138    1
   163   146   145    2
   164    95    96    2
   165   145   147   am
   166   145   144    1
   167   138   135    1
   168   134   135    1
   169   143   142    2
   170   144   141    1
   171   142   141    1
   172   135   136    1
   173   141   140    1
   174   136   137    2
