@<TRIPOS>MOLECULE
tmp/1seuD00.pdb
 125 116 0 0 0
SMALL
GASTEIGER

@<TRIPOS>ATOM
      1  N         32.9940  -11.4370   29.0480 N.3   151  ALA151     -0.1231
      2  CA        31.8380  -10.6510   29.4620 C.3   151  ALA151      0.1694
      3  C         30.6530  -11.4490   29.9990 C.2   151  ALA151      0.2592
      4  O         30.2710  -11.2820   31.1620 O.2   151  ALA151     -0.2718
      5  CB        31.3710   -9.7610   28.3230 C.3   151  ALA151      0.0304
      6  N         30.1020  -12.3410   29.1780 N.am  152  ASN152     -0.1974
      7  CA        28.9190  -13.1070   29.5670 C.3   152  ASN152      0.1688
      8  C         28.9820  -14.5700   29.1350 C.2   152  ASN152      0.2292
      9  O         28.1120  -15.0370   28.3870 O.2   152  ASN152     -0.2864
     10  CB        27.6670  -12.4160   28.9690 C.3   152  ASN152      0.1181
     11  CG        27.7380  -12.2630   27.4160 C.2   152  ASN152      0.2629
     12  OD1       28.8250  -12.1070   26.8310 O.2   152  ASN152     -0.2716
     13  ND2       26.5760  -12.3470   26.7570 N.am  152  ASN152     -0.0877
     14  N         21.8830  -17.0580   27.7690 N.3   156  GLU156     -0.1245
     15  CA        20.5420  -16.6620   28.1960 C.3   156  GLU156      0.1567
     16  C         19.5310  -17.8190   28.3400 C.2   156  GLU156      0.2260
     17  O         19.3670  -18.6300   27.4220 O.2   156  GLU156     -0.2867
     18  CB        20.0040  -15.5670   27.2610 C.3   156  GLU156      0.0388
     19  CG        20.8700  -15.2930   26.0110 C.3   156  GLU156      0.1160
     20  CD        21.1370  -13.7960   25.7660 C.2   156  GLU156      0.3649
     21  OE1       20.2570  -13.1130   25.1780 O.co2 156  GLU156     -0.2457
     22  OE2       22.2290  -13.3020   26.1430 O.co2 156  GLU156     -0.2457
     23  N         11.0770   -3.5930   25.4970 N.3   164  ARG164     -0.1245
     24  CA        10.7430   -2.3060   26.0940 C.3   164  ARG164      0.1563
     25  C          9.6850   -1.5640   25.3110 C.2   164  ARG164      0.2260
     26  O          9.7120   -1.4940   24.0740 O.2   164  ARG164     -0.2867
     27  CB        11.9930   -1.4420   26.3050 C.3   164  ARG164      0.0307
     28  CG        12.7090   -1.7310   27.6200 C.3   164  ARG164      0.0489
     29  CD        14.0270   -0.9890   27.7500 C.3   164  ARG164      0.2205
     30  NE        15.0590   -1.4730   26.8290 N.pl3 164  ARG164     -0.0865
     31  CZ        16.1830   -2.0890   27.1940 C.cat 164  ARG164      0.5346
     32  NH1       16.4470   -2.3240   28.4780 N.pl3 164  ARG164      0.1354
     33  NH2       17.0770   -2.4200   26.2710 N.pl3 164  ARG164      0.1354
     34  N         23.4450  -12.6870   18.5730 N.3   225  LYS225     -0.1231
     35  CA        23.8320  -12.4290   19.9700 C.3   225  LYS225      0.1693
     36  C         25.2830  -12.8970   20.1280 C.2   225  LYS225      0.2592
     37  O         25.6700  -13.8800   19.5020 O.2   225  LYS225     -0.2718
     38  CB        22.9160  -13.2230   20.9030 C.3   225  LYS225      0.0285
     39  CG        22.1890  -12.4390   21.9590 C.3   225  LYS225      0.0035
     40  CD        21.1140  -11.5230   21.4000 C.3   225  LYS225      0.0206
     41  CE        20.2270  -10.9890   22.5400 C.3   225  LYS225      0.1093
     42  NZ        19.1250  -10.0680   22.1220 N.3   225  LYS225     -0.1314
     43  N         26.0850  -12.2010   20.9480 N.am  226  TYR226     -0.1976
     44  CA        27.5180  -12.5360   21.1070 C.3   226  TYR226      0.1639
     45  C         28.1020  -12.6440   22.5190 C.2   226  TYR226      0.2290
     46  O         27.6030  -12.0460   23.4680 O.2   226  TYR226     -0.2864
     47  CB        28.3730  -11.4900   20.3780 C.3   226  TYR226      0.0560
     48  CG        28.0600  -11.2280   18.9180 C.ar  226  TYR226     -0.0198
     49  CD1       27.2000  -10.1800   18.5390 C.ar  226  TYR226     -0.0009
     50  CD2       28.6480  -12.0040   17.9040 C.ar  226  TYR226     -0.0009
     51  CE1       26.9350   -9.9160   17.1700 C.ar  226  TYR226      0.0417
     52  CE2       28.3960  -11.7490   16.5410 C.ar  226  TYR226      0.0417
     53  CZ        27.5410  -10.7090   16.1800 C.ar  226  TYR226      0.1957
     54  OH        27.2890  -10.4560   14.8530 O.3   226  TYR226     -0.2866
     55  N         31.3190  -11.6100   24.1600 N.3   228  MET228     -0.1245
     56  CA        32.4700  -10.7370   23.9790 C.3   228  MET228      0.1570
     57  C         33.3650  -10.7500   25.2130 C.2   228  MET228      0.2261
     58  O         33.0490  -11.3830   26.2160 O.2   228  MET228     -0.2867
     59  CB        31.9870   -9.3030   23.7040 C.3   228  MET228      0.0387
     60  CG        30.7800   -9.1870   22.7540 C.3   228  MET228      0.0595
     61  SD        30.9250   -7.9680   21.4320 S.3   228  MET228     -0.1393
     62  CE        31.4130   -9.0160   20.0540 C.3   228  MET228      0.0692
     63  N         35.1590   -5.5330   29.5340 N.3   231  PRO231     -0.2116
     64  CA        35.7060   -4.1990   29.2810 C.3   231  PRO231      0.1372
     65  C         37.1540   -3.9170   29.6600 C.2   231  PRO231      0.2244
     66  O         37.7830   -3.0430   29.0540 O.2   231  PRO231     -0.2868
     67  CB        34.7420   -3.3160   30.0510 C.3   231  PRO231      0.0268
     68  CG        33.4750   -3.9130   29.7250 C.3   231  PRO231      0.0207
     69  CD        33.7370   -5.3990   29.9210 C.3   231  PRO231      0.0892
     70  N         38.3680   -4.3600   23.8870 N.3   236  LYS236     -0.1245
     71  CA        37.2690   -3.4680   24.2090 C.3   236  LYS236      0.1561
     72  C         37.7920   -2.1150   24.6580 C.2   236  LYS236      0.2260
     73  O         37.1110   -1.1000   24.4840 O.2   236  LYS236     -0.2867
     74  CB        36.3670   -4.0810   25.2920 C.3   236  LYS236      0.0271
     75  CG        35.3760   -5.1530   24.7870 C.3   236  LYS236      0.0035
     76  CD        34.3320   -4.5400   23.8760 C.3   236  LYS236      0.0206
     77  CE        33.3850   -5.5580   23.2420 C.3   236  LYS236      0.1093
     78  NZ        32.2030   -4.8470   22.5920 N.3   236  LYS236     -0.1314
     79  N         14.9640    6.0850   21.9750 N.3   332  LYS332     -0.1231
     80  CA        15.4730    4.7280   22.2130 C.3   332  LYS332      0.1693
     81  C         14.9620    4.2450   23.5670 C.2   332  LYS332      0.2592
     82  O         14.8600    5.0370   24.5090 O.2   332  LYS332     -0.2718
     83  CB        17.0080    4.7020   22.1990 C.3   332  LYS332      0.0285
     84  CG        17.6380    3.3120   22.3520 C.3   332  LYS332      0.0035
     85  CD        19.1390    3.3700   22.5770 C.3   332  LYS332      0.0206
     86  CE        19.7120    1.9960   22.8680 C.3   332  LYS332      0.1093
     87  NZ        21.1830    2.0920   22.9460 N.3   332  LYS332     -0.1314
     88  N         14.5720    2.9670   23.6150 N.am  333  ASP333     -0.1974
     89  CA        14.0440    2.3010   24.8160 C.3   333  ASP333      0.1709
     90  C         12.7160    2.9380   25.2840 C.2   333  ASP333      0.2293
     91  O         12.3960    2.9280   26.4790 O.2   333  ASP333     -0.2864
     92  CB        15.0940    2.2760   25.9680 C.3   333  ASP333      0.1436
     93  CG        16.3940    1.5330   25.6000 C.2   333  ASP333      0.3671
     94  OD1       16.3440    0.3350   25.2570 O.co2 333  ASP333     -0.2456
     95  OD2       17.4800    2.1500   25.6740 O.co2 333  ASP333     -0.2456
     96  N         24.8750    5.6930   32.1810 N.3   518  THR518     -0.1218
     97  CA        25.1350    5.5990   30.7320 C.3   518  THR518      0.1862
     98  C         26.1950    6.5790   30.2390 C.2   518  THR518      0.2287
     99  O         27.1150    6.1890   29.5060 O.2   518  THR518     -0.2866
    100  CB        23.8310    5.7790   29.9140 C.3   518  THR518      0.1770
    101  OG1       22.8440    4.8560   30.3770 O.3   518  THR518     -0.2211
    102  CG2       24.0560    5.5110   28.4340 C.3   518  THR518      0.0375
    103  N         29.8270    5.8220   31.8050 N.3   521  LEU521     -0.1231
    104  CA        30.5390    4.7410   31.1410 C.3   521  LEU521      0.1693
    105  C         30.7530    4.8960   29.6420 C.2   521  LEU521      0.2592
    106  O         31.8670    4.6610   29.1360 O.2   521  LEU521     -0.2718
    107  CB        29.8480    3.3920   31.3940 C.3   521  LEU521      0.0284
    108  CG        30.0920    2.6130   32.6890 C.3   521  LEU521      0.0019
    109  CD1       29.3990    3.3150   33.8410 C.3   521  LEU521      0.0001
    110  CD2       29.5540    1.1900   32.5420 C.3   521  LEU521      0.0001
    111  N         29.7120    5.3370   28.9420 N.am  522  SER522     -0.1952
    112  CA        29.7890    5.4140   27.4970 C.3   522  SER522      0.1924
    113  C         29.9370    6.7470   26.7790 C.2   522  SER522      0.2314
    114  O         30.1220    6.7530   25.5610 O.2   522  SER522     -0.2863
    115  CB        28.6130    4.6250   26.9240 C.3   522  SER522      0.2116
    116  OG        28.6190    3.2860   27.4080 O.3   522  SER522     -0.2180
    117  N         37.7980   -1.1460   33.9620 N.3   550  LYS550     -0.1245
    118  CA        37.3800   -0.7920   32.6000 C.3   550  LYS550      0.1561
    119  C         38.2360    0.3750   32.1000 C.2   550  LYS550      0.2260
    120  O         38.7700    0.3490   30.9860 O.2   550  LYS550     -0.2867
    121  CB        35.8990   -0.3650   32.6180 C.3   550  LYS550      0.0271
    122  CG        35.3400    0.2330   31.3190 C.3   550  LYS550      0.0035
    123  CD        33.9340    0.7840   31.5180 C.3   550  LYS550      0.0206
    124  CE        33.1080    0.7800   30.2330 C.3   550  LYS550      0.1093
    125  NZ        33.7770    1.4730   29.1130 N.3   550  LYS550     -0.1314
@<TRIPOS>BOND
     1    54    53    1
     2    53    52   ar
     3    53    51   ar
     4    52    50   ar
     5    51    49   ar
     6    50    48   ar
     7    49    48   ar
     8    34    35    1
     9    48    47    1
    10    37    36    2
    11    35    36    1
    12    35    38    1
    13    62    61    1
    14    36    43   am
    15    47    44    1
    16    38    39    1
    17    43    44    1
    18    44    45    1
    19    40    39    1
    20    40    41    1
    21    61    60    1
    22    79    80    1
    23    42    41    1
    24    83    80    1
    25    83    84    1
    26    80    81    1
    27    84    85    1
    28    45    46    2
    29    85    86    1
    30    78    77    1
    31    60    59    1
    32    86    87    1
    33    77    76    1
    34    81    88   am
    35    81    82    2
    36    88    89    1
    37    59    56    1
    38    76    75    1
    39    70    71    1
    40    56    55    1
    41    56    57    1
    42    26    25    2
    43    71    72    1
    44    71    74    1
    45    73    72    2
    46    75    74    1
    47    89    90    1
    48    89    92    1
    49    21    20   ar
    50    57    58    2
    51    94    93   ar
    52    90    91    2
    53    25    24    1
    54    23    24    1
    55   114   113    2
    56    93    95   ar
    57    93    92    1
    58    20    19    1
    59    20    22   ar
    60    19    18    1
    61    24    27    1
    62    33    31    1
    63    27    28    1
    64    13    11   am
    65   113   112    1
    66    30    31    2
    67    30    29    1
    68    12    11    2
    69   115   116    1
    70   115   112    1
    71    31    32    1
    72    18    15    1
    73    11    10    1
    74    17    16    2
    75   112   111    1
    76    28    29    1
    77    14    15    1
    78    15    16    1
    79     5     2    1
    80     9     8    2
    81   102   100    1
    82   111   105   am
    83    10     7    1
    84     1     2    1
    85    66    65    2
    86   125   124    1
    87     8     7    1
    88   106   105    2
    89     6     7    1
    90     6     3   am
    91    64    63    1
    92    64    65    1
    93    64    67    1
    94     2     3    1
    95    99    98    2
    96    63    69    1
    97   105   104    1
    98    68    69    1
    99    68    67    1
   100   100   101    1
   101   100    97    1
   102     3     4    2
   103   124   123    1
   104    98    97    1
   105    97    96    1
   106   120   119    2
   107   104   107    1
   108   104   103    1
   109   122   123    1
   110   122   121    1
   111   107   108    1
   112   119   118    1
   113   110   108    1
   114   118   121    1
   115   118   117    1
   116   108   109    1
