@<TRIPOS>MOLECULE
tmp/1sezB02.pdb
 132 126 0 0 0
SMALL
GASTEIGER

@<TRIPOS>ATOM
      1  N        -37.1860   29.1470   62.1540 N.3    85  ARG85      -0.1245
      2  CA       -38.0890   29.5430   63.2150 C.3    85  ARG85       0.1563
      3  C        -37.7360   28.6870   64.4100 C.2    85  ARG85       0.2260
      4  O        -37.1810   27.6090   64.2560 O.2    85  ARG85      -0.2867
      5  CB       -39.5380   29.2890   62.8060 C.3    85  ARG85       0.0307
      6  CG       -39.9600   29.9950   61.5420 C.3    85  ARG85       0.0489
      7  CD       -41.3700   29.5820   61.1440 C.3    85  ARG85       0.2205
      8  NE       -41.9180   30.4430   60.0990 N.pl3  85  ARG85      -0.0865
      9  CZ       -41.5240   30.4290   58.8290 C.cat  85  ARG85       0.5346
     10  NH1      -40.5770   29.5830   58.4370 N.pl3  85  ARG85       0.1354
     11  NH2      -42.0600   31.2800   57.9540 N.pl3  85  ARG85       0.1354
     12  N        -39.0610   27.1900   68.4150 N.3    87  ILE87      -0.1245
     13  CA       -40.2170   26.9040   69.2350 C.3    87  ILE87       0.1561
     14  C        -39.6980   26.8870   70.6680 C.2    87  ILE87       0.2260
     15  O        -38.5910   26.4260   70.9240 O.2    87  ILE87      -0.2867
     16  CB       -40.8130   25.5280   68.9090 C.3    87  ILE87       0.0252
     17  CG1      -40.9390   25.3400   67.3930 C.3    87  ILE87       0.0019
     18  CG2      -42.1580   25.3940   69.5580 C.3    87  ILE87       0.0019
     19  CD1      -41.8710   26.2880   66.7030 C.3    87  ILE87       0.0001
     20  N        -36.8170   24.6840   64.4940 N.3    96  LEU96      -0.1245
     21  CA       -37.9260   23.9420   63.9500 C.3    96  LEU96       0.1561
     22  C        -37.5270   23.4400   62.5780 C.2    96  LEU96       0.2260
     23  O        -36.8000   24.1230   61.8590 O.2    96  LEU96      -0.2867
     24  CB       -39.1270   24.8680   63.8210 C.3    96  LEU96       0.0270
     25  CG       -40.3400   24.3710   63.0360 C.3    96  LEU96       0.0019
     26  CD1      -41.1460   23.3520   63.8680 C.3    96  LEU96       0.0001
     27  CD2      -41.1950   25.5870   62.6710 C.3    96  LEU96       0.0001
     28  N        -41.1420   19.7200   56.2600 N.3   100  PRO100     -0.2116
     29  CA       -41.5630   18.3840   56.7000 C.3   100  PRO100      0.1372
     30  C        -40.8930   17.2240   55.9450 C.2   100  PRO100      0.2244
     31  O        -41.3740   16.7980   54.8930 O.2   100  PRO100     -0.2868
     32  CB       -43.0780   18.4340   56.4990 C.3   100  PRO100      0.0268
     33  CG       -43.3970   19.8740   56.8510 C.3   100  PRO100      0.0207
     34  CD       -42.3130   20.6090   56.0990 C.3   100  PRO100      0.0892
     35  N        -55.9830   16.6300   64.8970 N.3   132  PHE132     -0.1241
     36  CA       -54.5580   16.3590   64.9970 C.3   132  PHE132      0.1605
     37  C        -54.1750   15.4470   66.1490 C.2   132  PHE132      0.2264
     38  O        -53.2670   14.6370   66.0260 O.2   132  PHE132     -0.2867
     39  CB       -53.7750   17.6570   65.0680 C.3   132  PHE132      0.0534
     40  CG       -53.6810   18.3620   63.7580 C.ar  132  PHE132     -0.0203
     41  CD1      -54.5580   19.3780   63.4370 C.ar  132  PHE132     -0.0042
     42  CD2      -52.7310   17.9870   62.8290 C.ar  132  PHE132     -0.0042
     43  CE1      -54.4890   20.0080   62.2130 C.ar  132  PHE132     -0.0003
     44  CE2      -52.6560   18.6150   61.5970 C.ar  132  PHE132     -0.0003
     45  CZ       -53.5350   19.6260   61.2880 C.ar  132  PHE132     -0.0000
     46  N        -46.2300   21.5820   67.6580 N.3   144  LEU144     -0.1231
     47  CA       -46.1920   21.7760   66.2190 C.3   144  LEU144      0.1693
     48  C        -47.4170   22.4990   65.7200 C.2   144  LEU144      0.2591
     49  O        -47.3340   23.6780   65.3960 O.2   144  LEU144     -0.2718
     50  CB       -46.0440   20.4520   65.4820 C.3   144  LEU144      0.0284
     51  CG       -44.6090   19.9890   65.2730 C.3   144  LEU144      0.0019
     52  CD1      -44.5730   18.7420   64.3810 C.3   144  LEU144      0.0001
     53  CD2      -43.8430   21.1200   64.6390 C.3   144  LEU144      0.0001
     54  N        -48.5650   21.8360   65.6720 N.am  145  ILE145     -0.1980
     55  CA       -49.7230   22.5520   65.1650 C.3   145  ILE145      0.1595
     56  C        -50.1630   23.7110   66.0710 C.2   145  ILE145      0.2287
     57  O        -50.7140   24.6880   65.5740 O.2   145  ILE145     -0.2864
     58  CB       -50.9290   21.6100   64.8440 C.3   145  ILE145      0.0276
     59  CG1      -51.7190   21.3150   66.1040 C.3   145  ILE145      0.0022
     60  CG2      -50.4460   20.3470   64.1420 C.3   145  ILE145      0.0022
     61  CD1      -52.7890   22.3450   66.3360 C.3   145  ILE145      0.0001
     62  N        -48.1130   25.8740   67.9800 N.3   147  PRO147     -0.2102
     63  CA       -47.2940   27.0490   67.6890 C.3   147  PRO147      0.1504
     64  C        -47.7420   27.6630   66.3650 C.2   147  PRO147      0.2575
     65  O        -47.7620   28.8830   66.1980 O.2   147  PRO147     -0.2718
     66  CB       -45.8870   26.4680   67.6100 C.3   147  PRO147      0.0282
     67  CG       -45.9430   25.3510   68.5820 C.3   147  PRO147      0.0208
     68  CD       -47.2610   24.7110   68.2700 C.3   147  PRO147      0.0893
     69  N        -48.1130   26.7960   65.4290 N.am  148  PHE148     -0.1977
     70  CA       -48.5690   27.2370   64.1190 C.3   148  PHE148      0.1639
     71  C        -49.8230   28.1050   64.2220 C.2   148  PHE148      0.2290
     72  O        -49.9030   29.1930   63.6320 O.2   148  PHE148     -0.2864
     73  CB       -48.8550   26.0320   63.2290 C.3   148  PHE148      0.0560
     74  CG       -49.4120   26.3940   61.8810 C.ar  148  PHE148     -0.0200
     75  CD1      -50.7880   26.4670   61.6800 C.ar  148  PHE148     -0.0042
     76  CD2      -48.5590   26.6880   60.8150 C.ar  148  PHE148     -0.0042
     77  CE1      -51.3170   26.8270   60.4490 C.ar  148  PHE148     -0.0003
     78  CE2      -49.0810   27.0520   59.5690 C.ar  148  PHE148     -0.0003
     79  CZ       -50.4670   27.1220   59.3900 C.ar  148  PHE148     -0.0000
     80  N        -49.0910   31.2970   65.8290 N.3   151  GLY151     -0.1210
     81  CA       -48.4380   32.2080   64.9070 C.3   151  GLY151      0.1956
     82  C        -49.3280   32.7060   63.7810 C.2   151  GLY151      0.2612
     83  O        -48.9340   33.5880   63.0190 O.2   151  GLY151     -0.2717
     84  N        -50.5330   32.1630   63.6620 N.am  152  THR152     -0.1952
     85  CA       -51.3980   32.6050   62.5790 C.3   152  THR152      0.1897
     86  C        -52.5440   33.5080   63.0140 C.2   152  THR152      0.2313
     87  O        -53.0030   34.3480   62.2400 O.2   152  THR152     -0.2863
     88  CB       -51.9880   31.4120   61.7990 C.3   152  THR152      0.1794
     89  OG1      -50.9300   30.5510   61.3540 O.3   152  THR152     -0.2208
     90  CG2      -52.7620   31.9160   60.5790 C.3   152  THR152      0.0378
     91  N        -60.7210   25.8570   59.6250 N.3   164  SER164     -0.1202
     92  CA       -59.3360   26.2990   59.7290 C.3   164  SER164      0.2020
     93  C        -58.4500   25.6750   58.6600 C.2   164  SER164      0.2618
     94  O        -57.7380   26.3850   57.9580 O.2   164  SER164     -0.2717
     95  CB       -58.7760   25.9820   61.1160 C.3   164  SER164      0.2103
     96  OG       -59.4520   26.7210   62.1220 O.3   164  SER164     -0.2182
     97  N        -58.4780   24.3530   58.5360 N.am  165  PHE165     -0.1975
     98  CA       -57.6640   23.6970   57.5200 C.3   165  PHE165      0.1639
     99  C        -58.5570   22.9890   56.5110 C.2   165  PHE165      0.2290
    100  O        -58.8370   21.8020   56.6460 O.2   165  PHE165     -0.2864
    101  CB       -56.7120   22.6680   58.1390 C.3   165  PHE165      0.0560
    102  CG       -55.7770   23.2300   59.1720 C.ar  165  PHE165     -0.0200
    103  CD1      -56.2390   23.5640   60.4440 C.ar  165  PHE165     -0.0042
    104  CD2      -54.4210   23.3690   58.8940 C.ar  165  PHE165     -0.0042
    105  CE1      -55.3610   24.0220   61.4270 C.ar  165  PHE165     -0.0003
    106  CE2      -53.5330   23.8270   59.8700 C.ar  165  PHE165     -0.0003
    107  CZ       -54.0050   24.1520   61.1400 C.ar  165  PHE165     -0.0000
    108  N        -57.9370   22.5370   53.1680 N.3   167  GLU167     -0.1231
    109  CA       -57.0740   21.6990   52.3460 C.3   167  GLU167      0.1699
    110  C        -56.7310   20.3610   52.9960 C.2   167  GLU167      0.2592
    111  O        -56.1620   19.4850   52.3360 O.2   167  GLU167     -0.2718
    112  CB       -55.7860   22.4550   51.9960 C.3   167  GLU167      0.0402
    113  CG       -54.8160   22.9420   53.0040 C.3   167  GLU167      0.1161
    114  CD       -55.1270   24.0020   53.9960 C.2   167  GLU167      0.3649
    115  OE1      -56.2150   24.5920   53.8630 O.co2 167  GLU167     -0.2457
    116  OE2      -54.3270   24.3080   54.8760 O.co2 167  GLU167     -0.2457
    117  N        -57.0570   20.2010   54.2810 N.am  168  LEU168     -0.1980
    118  CA       -56.7840   18.9410   54.9790 C.3   168  LEU168      0.1596
    119  C        -58.0520   18.1990   55.3760 C.2   168  LEU168      0.2287
    120  O        -58.0620   16.9720   55.4270 O.2   168  LEU168     -0.2864
    121  CB       -55.9230   19.1640   56.2250 C.3   168  LEU168      0.0297
    122  CG       -54.4520   19.5210   56.0180 C.3   168  LEU168      0.0022
    123  CD1      -53.7650   19.4020   57.3490 C.3   168  LEU168      0.0001
    124  CD2      -53.7890   18.5900   55.0170 C.3   168  LEU168      0.0001
    125  N        -41.7410   31.1020   68.4780 N.3   318  LEU318     -0.1245
    126  CA       -43.1530   30.8970   68.7550 C.3   318  LEU318      0.1561
    127  C        -43.2480   30.2680   70.1260 C.2   318  LEU318      0.2260
    128  O        -42.4590   29.4030   70.4710 O.2   318  LEU318     -0.2867
    129  CB       -43.7630   29.9600   67.7170 C.3   318  LEU318      0.0270
    130  CG       -43.8150   30.5390   66.3150 C.3   318  LEU318      0.0019
    131  CD1      -44.2030   29.4760   65.3450 C.3   318  LEU318      0.0001
    132  CD2      -44.8240   31.6430   66.2790 C.3   318  LEU318      0.0001
@<TRIPOS>BOND
     1   112   109    1
     2   112   113    1
     3   111   110    2
     4   109   110    1
     5   109   108    1
     6   110   117   am
     7   113   114    1
     8   115   114   ar
     9   114   116   ar
    10   117   118    1
    11    31    30    2
    12   118   119    1
    13   118   121    1
    14   124   122    1
    15   119   120    2
    16    30    29    1
    17   122   121    1
    18   122   123    1
    19    34    28    1
    20    34    33    1
    21    28    29    1
    22    32    29    1
    23    32    33    1
    24    99   100    2
    25    99    98    1
    26    98   101    1
    27    98    97    1
    28    11     9    1
    29    94    93    2
    30   101   102    1
    31    10     9    1
    32    97    93   am
    33    93    92    1
    34     9     8    2
    35   104   102   ar
    36   104   106   ar
    37   102   103   ar
    38    79    78   ar
    39    79    77   ar
    40    78    76   ar
    41    91    92    1
    42    92    95    1
    43   106   107   ar
    44     8     7    1
    45   103   105   ar
    46    77    75   ar
    47    90    88    1
    48    76    74   ar
    49    95    96    1
    50   107   105   ar
    51     7     6    1
    52    45    44   ar
    53    45    43   ar
    54    89    88    1
    55     6     5    1
    56    44    42   ar
    57    75    74   ar
    58    88    85    1
    59    23    22    2
    60    74    73    1
    61     1     2    1
    62    43    41   ar
    63    87    86    2
    64    22    21    1
    65    85    86    1
    66    85    84    1
    67    27    25    1
    68     5     2    1
    69    42    40   ar
    70    83    82    2
    71    25    24    1
    72    25    26    1
    73     2     3    1
    74    73    70    1
    75    41    40   ar
    76    72    71    2
    77    84    82   am
    78    40    39    1
    79    82    81    1
    80    24    21    1
    81    21    20    1
    82    70    71    1
    83    70    69    1
    84    60    58    1
    85     4     3    2
    86    52    51    1
    87    53    51    1
    88    58    55    1
    89    58    59    1
    90    35    36    1
    91    81    80    1
    92    36    39    1
    93    36    37    1
    94    55    54    1
    95    55    56    1
    96    51    50    1
    97   131   130    1
    98    49    48    2
    99    69    64   am
   100    50    47    1
   101    57    56    2
   102    54    48   am
   103    48    47    1
   104    38    37    2
   105    59    61    1
   106    65    64    2
   107    47    46    1
   108   132   130    1
   109   130   129    1
   110    64    63    1
   111    19    17    1
   112    17    16    1
   113    66    63    1
   114    66    67    1
   115    63    62    1
   116   129   126    1
   117    62    68    1
   118    68    67    1
   119    12    13    1
   120   125   126    1
   121   126   127    1
   122    16    13    1
   123    16    18    1
   124    13    14    1
   125   127   128    2
   126    14    15    2
