@<TRIPOS>MOLECULE
tmp/1sezB01.pdb
 140 134 0 0 0
SMALL
GASTEIGER

@<TRIPOS>ATOM
      1  N        -49.4190   46.0180   62.8620 N.3    53  GLY53      -0.1210
      2  CA       -50.3730   45.0510   62.3610 C.3    53  GLY53       0.1956
      3  C        -49.6840   43.9110   61.6310 C.2    53  GLY53       0.2611
      4  O        -48.7620   43.2940   62.1610 O.2    53  GLY53      -0.2717
      5  N        -50.1230   43.6200   60.4100 N.am   54  ALA54      -0.1979
      6  CA       -49.5230   42.5400   59.6390 C.3    54  ALA54       0.1597
      7  C        -48.0600   42.8510   59.3870 C.2    54  ALA54       0.2287
      8  O        -47.7310   43.9370   58.9300 O.2    54  ALA54      -0.2864
      9  CB       -50.2600   42.3670   58.3320 C.3    54  ALA54       0.0319
     10  N        -45.7680   40.5020   57.7220 N.3    56  THR56      -0.1218
     11  CA       -45.2800   39.9110   56.5090 C.3    56  THR56       0.1862
     12  C        -46.4520   39.4110   55.6800 C.2    56  THR56       0.2287
     13  O        -47.5860   39.4300   56.1350 O.2    56  THR56      -0.2866
     14  CB       -44.3120   38.7810   56.8470 C.3    56  THR56       0.1770
     15  OG1      -43.6470   38.3720   55.6520 O.3    56  THR56      -0.2211
     16  CG2      -45.0480   37.6000   57.4680 C.3    56  THR56       0.0375
     17  N        -37.1860   29.1470   62.1540 N.3    85  ARG85      -0.1245
     18  CA       -38.0890   29.5430   63.2150 C.3    85  ARG85       0.1563
     19  C        -37.7360   28.6870   64.4100 C.2    85  ARG85       0.2260
     20  O        -37.1810   27.6090   64.2560 O.2    85  ARG85      -0.2867
     21  CB       -39.5380   29.2890   62.8060 C.3    85  ARG85       0.0307
     22  CG       -39.9600   29.9950   61.5420 C.3    85  ARG85       0.0489
     23  CD       -41.3700   29.5820   61.1440 C.3    85  ARG85       0.2205
     24  NE       -41.9180   30.4430   60.0990 N.pl3  85  ARG85      -0.0865
     25  CZ       -41.5240   30.4290   58.8290 C.cat  85  ARG85       0.5346
     26  NH1      -40.5770   29.5830   58.4370 N.pl3  85  ARG85       0.1354
     27  NH2      -42.0600   31.2800   57.9540 N.pl3  85  ARG85       0.1354
     28  N        -50.9050   29.5660   66.9260 N.3   150  ALA150     -0.1231
     29  CA       -50.5400   30.7380   67.6960 C.3   150  ALA150      0.1694
     30  C        -49.9120   31.7680   66.7630 C.2   150  ALA150      0.2593
     31  O        -50.1760   32.9690   66.8810 O.2   150  ALA150     -0.2718
     32  CB       -49.5610   30.3650   68.8040 C.3   150  ALA150      0.0304
     33  N        -49.0910   31.2970   65.8290 N.am  151  GLY151     -0.1942
     34  CA       -48.4380   32.2080   64.9070 C.3   151  GLY151      0.2014
     35  C        -49.3280   32.7060   63.7810 C.2   151  GLY151      0.2640
     36  O        -48.9340   33.5880   63.0190 O.2   151  GLY151     -0.2714
     37  N        -50.5330   32.1630   63.6620 N.am  152  THR152     -0.1936
     38  CA       -51.3980   32.6050   62.5790 C.3   152  THR152      0.2028
     39  C        -52.5440   33.5080   63.0140 C.2   152  THR152      0.2642
     40  O        -53.0030   34.3480   62.2400 O.2   152  THR152     -0.2714
     41  CB       -51.9880   31.4120   61.7990 C.3   152  THR152      0.1808
     42  OG1      -50.9300   30.5510   61.3540 O.3   152  THR152     -0.2208
     43  CG2      -52.7620   31.9160   60.5790 C.3   152  THR152      0.0379
     44  N        -53.0130   33.3430   64.2440 N.am  153  CYS153     -0.1953
     45  CA       -54.1130   34.1660   64.7380 C.3   153  CYS153      0.1843
     46  C        -54.0530   34.3020   66.2540 C.2   153  CYS153      0.2626
     47  O        -54.9450   34.8800   66.8680 O.2   153  CYS153     -0.2714
     48  CB       -55.4540   33.5530   64.3330 C.3   153  CYS153      0.0997
     49  SG       -55.7890   31.9300   65.0860 S.3   153  CYS153     -0.0797
     50  N        -52.9950   33.7580   66.8450 N.am  154  GLY154     -0.1954
     51  CA       -52.8230   33.8340   68.2800 C.3   154  GLY154      0.1869
     52  C        -53.8870   33.0430   68.9950 C.2   154  GLY154      0.2309
     53  O        -54.0450   33.1600   70.2160 O.2   154  GLY154     -0.2863
     54  N        -55.1850   40.9930   71.2370 N.3   296  LEU296     -0.1245
     55  CA       -53.7420   40.9240   71.4430 C.3   296  LEU296      0.1561
     56  C        -53.0390   42.2230   71.0920 C.2   296  LEU296      0.2260
     57  O        -53.5350   43.0030   70.2810 O.2   296  LEU296     -0.2867
     58  CB       -53.1520   39.7540   70.6360 C.3   296  LEU296      0.0270
     59  CG       -52.4630   39.9460   69.2900 C.3   296  LEU296      0.0019
     60  CD1      -52.4320   38.6010   68.6280 C.3   296  LEU296      0.0001
     61  CD2      -53.1950   40.9170   68.4080 C.3   296  LEU296      0.0001
     62  N        -36.1380   34.0400   61.7530 N.3   315  PHE315     -0.1227
     63  CA       -37.2570   34.9770   61.7010 C.3   315  PHE315      0.1740
     64  C        -37.8370   35.2470   63.0670 C.2   315  PHE315      0.2635
     65  O        -38.2560   36.3670   63.3400 O.2   315  PHE315     -0.2714
     66  CB       -38.3540   34.4580   60.7730 C.3   315  PHE315      0.0548
     67  CG       -37.9920   34.5160   59.3310 C.ar  315  PHE315     -0.0202
     68  CD1      -36.6590   34.6120   58.9350 C.ar  315  PHE315     -0.0042
     69  CD2      -38.9750   34.4280   58.3550 C.ar  315  PHE315     -0.0042
     70  CE1      -36.3040   34.6160   57.5830 C.ar  315  PHE315     -0.0003
     71  CE2      -38.6440   34.4270   57.0010 C.ar  315  PHE315     -0.0003
     72  CZ       -37.3010   34.5210   56.6130 C.ar  315  PHE315     -0.0000
     73  N        -37.8650   34.2320   63.9260 N.am  316  GLY316     -0.1718
     74  CA       -38.3990   34.4660   65.2500 C.2   316  GLY316      0.1480
     75  C        -38.5470   33.2590   66.1380 C.2   316  GLY316      0.2820
     76  O        -37.8750   32.2450   65.9520 O.2   316  GLY316     -0.2669
     77  N        -39.4300   33.3860   67.1220 N.am  317  VAL317     -0.1929
     78  CA       -39.6960   32.3170   68.0710 C.3   317  VAL317      0.1730
     79  C        -41.1880   32.3060   68.3520 C.2   317  VAL317      0.2616
     80  O        -41.8120   33.3640   68.4560 O.2   317  VAL317     -0.2715
     81  CB       -38.9770   32.5400   69.4150 C.3   317  VAL317      0.0290
     82  CG1      -39.2860   31.3930   70.3640 C.3   317  VAL317      0.0023
     83  CG2      -37.5020   32.6570   69.1960 C.3   317  VAL317      0.0023
     84  N        -41.7410   31.1020   68.4780 N.am  318  LEU318     -0.1977
     85  CA       -43.1530   30.8970   68.7550 C.3   318  LEU318      0.1596
     86  C        -43.2480   30.2680   70.1260 C.2   318  LEU318      0.2287
     87  O        -42.4590   29.4030   70.4710 O.2   318  LEU318     -0.2864
     88  CB       -43.7630   29.9600   67.7170 C.3   318  LEU318      0.0297
     89  CG       -43.8150   30.5390   66.3150 C.3   318  LEU318      0.0022
     90  CD1      -44.2030   29.4760   65.3450 C.3   318  LEU318      0.0001
     91  CD2      -44.8240   31.6430   66.2790 C.3   318  LEU318      0.0001
     92  N        -46.7380   35.2170   73.1430 N.3   331  LEU331     -0.1231
     93  CA       -47.1560   34.3040   72.0730 C.3   331  LEU331      0.1693
     94  C        -46.0250   34.0090   71.1060 C.2   331  LEU331      0.2593
     95  O        -45.9780   32.9520   70.4880 O.2   331  LEU331     -0.2718
     96  CB       -48.2980   34.9160   71.2670 C.3   331  LEU331      0.0284
     97  CG       -49.6060   35.1850   71.9970 C.3   331  LEU331      0.0019
     98  CD1      -50.5740   35.9410   71.0850 C.3   331  LEU331      0.0001
     99  CD2      -50.2000   33.8480   72.4490 C.3   331  LEU331      0.0001
    100  N        -45.1260   34.9660   70.9520 N.am  332  GLY332     -0.1942
    101  CA       -44.0120   34.7870   70.0490 C.3   332  GLY332      0.2014
    102  C        -43.4570   36.1550   69.7250 C.2   332  GLY332      0.2640
    103  O        -44.1200   37.1650   69.9670 O.2   332  GLY332     -0.2714
    104  N        -42.2440   36.2050   69.1870 N.am  333  THR333     -0.1936
    105  CA       -41.6500   37.4800   68.8530 C.3   333  THR333      0.2028
    106  C        -40.8160   37.3650   67.5800 C.2   333  THR333      0.2642
    107  O        -40.1150   36.3740   67.3600 O.2   333  THR333     -0.2714
    108  CB       -40.7910   38.0470   70.0540 C.3   333  THR333      0.1808
    109  OG1      -39.4090   38.1330   69.6760 O.3   333  THR333     -0.2208
    110  CG2      -40.9560   37.1790   71.3180 C.3   333  THR333      0.0379
    111  N        -40.9260   38.3800   66.7330 N.am  334  LEU334     -0.1977
    112  CA       -40.2040   38.4290   65.4800 C.3   334  LEU334      0.1596
    113  C        -38.8400   39.0850   65.6490 C.2   334  LEU334      0.2287
    114  O        -38.6620   39.9380   66.5120 O.2   334  LEU334     -0.2864
    115  CB       -41.0100   39.2190   64.4630 C.3   334  LEU334      0.0297
    116  CG       -42.2890   38.5530   63.9720 C.3   334  LEU334      0.0022
    117  CD1      -43.0460   39.5240   63.0820 C.3   334  LEU334      0.0001
    118  CD2      -41.9550   37.2740   63.2090 C.3   334  LEU334      0.0001
    119  N        -45.7290   39.6900   70.3270 N.3   352  PHE352     -0.1241
    120  CA       -47.1760   39.6660   70.3930 C.3   352  PHE352      0.1605
    121  C        -47.5820   39.1100   71.7420 C.2   352  PHE352      0.2264
    122  O        -47.1470   38.0270   72.1220 O.2   352  PHE352     -0.2867
    123  CB       -47.7180   38.8030   69.2660 C.3   352  PHE352      0.0534
    124  CG       -47.2640   39.2490   67.9150 C.ar  352  PHE352     -0.0203
    125  CD1      -46.0480   38.8330   67.4020 C.ar  352  PHE352     -0.0042
    126  CD2      -48.0260   40.1380   67.1710 C.ar  352  PHE352     -0.0042
    127  CE1      -45.5910   39.2950   66.1690 C.ar  352  PHE352     -0.0003
    128  CE2      -47.5790   40.6030   65.9410 C.ar  352  PHE352     -0.0003
    129  CZ       -46.3570   40.1780   65.4440 C.ar  352  PHE352     -0.0000
    130  N        -58.0130   39.0450   65.4100 N.3   399  PHE399     -0.1241
    131  CA       -58.4180   38.0820   64.3970 C.3   399  PHE399      0.1605
    132  C        -59.7650   37.4480   64.6770 C.2   399  PHE399      0.2264
    133  O        -60.1550   37.2630   65.8320 O.2   399  PHE399     -0.2867
    134  CB       -57.4280   36.9270   64.2860 C.3   399  PHE399      0.0534
    135  CG       -56.0400   37.3200   63.9260 C.ar  399  PHE399     -0.0203
    136  CD1      -55.1380   37.7300   64.9110 C.ar  399  PHE399     -0.0042
    137  CD2      -55.5820   37.1480   62.6260 C.ar  399  PHE399     -0.0042
    138  CE1      -53.8060   37.9430   64.6070 C.ar  399  PHE399     -0.0003
    139  CE2      -54.2600   37.3570   62.3150 C.ar  399  PHE399     -0.0003
    140  CZ       -53.3700   37.7510   63.3100 C.ar  399  PHE399     -0.0000
@<TRIPOS>BOND
     1    15    14    1
     2    12    13    2
     3    12    11    1
     4    11    14    1
     5    11    10    1
     6    72    71   ar
     7    72    70   ar
     8    14    16    1
     9    71    69   ar
    10    70    68   ar
    11    27    25    1
    12     9     6    1
    13    69    67   ar
    14    26    25    1
    15    25    24    2
    16     8     7    2
    17    68    67   ar
    18    67    66    1
    19     7     6    1
    20     6     5    1
    21    24    23    1
    22     5     3   am
    23    43    41    1
    24    66    63    1
    25    23    22    1
    26    42    41    1
    27    22    21    1
    28     3     4    2
    29     3     2    1
    30    63    62    1
    31    63    64    1
    32    41    38    1
    33    17    18    1
    34    40    39    2
    35   139   137   ar
    36   139   140   ar
    37     2     1    1
    38    38    39    1
    39    38    37    1
    40   137   135   ar
    41    21    18    1
    42    39    44   am
    43    36    35    2
    44    64    65    2
    45    64    73    1
    46   117   116    1
    47   118   116    1
    48    18    19    1
    49   140   138   ar
    50    37    35   am
    51    35    34    1
    52   135   134    1
    53   135   136   ar
    54    73    74    2
    55   116   115    1
    56    44    45    1
    57    20    19    2
    58   134   131    1
    59    48    45    1
    60    48    49    1
    61   131   132    1
    62   131   130    1
    63   115   112    1
    64   138   136   ar
    65   132   133    2
    66    45    46    1
    67    34    33    1
    68    74    75    1
    69    90    89    1
    70   129   128   ar
    71   129   127   ar
    72   112   113    1
    73   112   111    1
    74   113   114    2
    75    33    30   am
    76   128   126   ar
    77    76    75    2
    78    75    77   am
    79   127   125   ar
    80    46    50   am
    81    46    47    2
    82    91    89    1
    83    89    88    1
    84   111   106   am
    85    30    31    2
    86    30    29    1
    87    50    51    1
    88    28    29    1
    89    77    78    1
    90   126   124   ar
    91   107   106    2
    92   125   124   ar
    93   106   105    1
    94    29    32    1
    95    88    85    1
    96   124   123    1
    97    78    79    1
    98    78    81    1
    99    51    52    1
   100    79    80    2
   101    79    84   am
   102    61    59    1
   103    84    85    1
   104    60    59    1
   105    85    86    1
   106   105   104    1
   107   105   108    1
   108    52    53    2
   109   104   102   am
   110    83    81    1
   111   123   120    1
   112    59    58    1
   113    81    82    1
   114   109   108    1
   115   102   103    2
   116   102   101    1
   117   101   100    1
   118   108   110    1
   119    86    87    2
   120    57    56    2
   121   119   120    1
   122   120   121    1
   123    95    94    2
   124    58    55    1
   125   100    94   am
   126    98    97    1
   127    56    55    1
   128    94    93    1
   129    54    55    1
   130    96    97    1
   131    96    93    1
   132   121   122    2
   133    97    99    1
   134    93    92    1
