@<TRIPOS>MOLECULE
tmp/1sf4A00.pdb
 163 161 0 0 0
SMALL
GASTEIGER

@<TRIPOS>ATOM
      1  N          2.7740   25.3230   12.0460 N.3    34  PHE34      -0.1227
      2  CA         3.8050   26.1060   12.6900 C.3    34  PHE34       0.1736
      3  C          4.4840   25.3640   13.8410 C.2    34  PHE34       0.2595
      4  O          5.4050   25.8940   14.4560 O.2    34  PHE34      -0.2718
      5  CB         3.2560   27.4610   13.1610 C.3    34  PHE34       0.0547
      6  CG         2.9030   28.4270   12.0310 C.ar   34  PHE34      -0.0202
      7  CD1        3.8670   28.8220   11.1120 C.ar   34  PHE34      -0.0042
      8  CD2        1.6350   28.9610   11.9330 C.ar   34  PHE34      -0.0042
      9  CE1        3.5530   29.7080   10.0950 C.ar   34  PHE34      -0.0003
     10  CE2        1.3200   29.8510   10.9220 C.ar   34  PHE34      -0.0003
     11  CZ         2.2760   30.2240   10.0000 C.ar   34  PHE34      -0.0000
     12  N          4.0440   24.1500   14.1560 N.am   35  GLU35      -0.1979
     13  CA         4.7040   23.4210   15.2400 C.3    35  GLU35       0.1602
     14  C          5.4500   22.2010   14.7080 C.2    35  GLU35       0.2287
     15  O          6.5150   21.8530   15.2080 O.2    35  GLU35      -0.2864
     16  CB         3.7060   23.0250   16.3220 C.3    35  GLU35       0.0415
     17  CG         3.1310   24.1930   17.1120 C.3    35  GLU35       0.1163
     18  CD         4.1150   24.8730   18.0460 C.2    35  GLU35       0.3649
     19  OE1        5.1370   25.3870   17.5560 O.co2  35  GLU35      -0.2457
     20  OE2        3.8480   24.9330   19.2690 O.co2  35  GLU35      -0.2457
     21  N         11.5890   17.4110   18.5450 N.3    44  ASN44      -0.1240
     22  CA        12.8280   18.1240   18.7900 C.3    44  ASN44       0.1653
     23  C         13.1160   18.3750   20.2590 C.2    44  ASN44       0.2266
     24  O         12.2200   18.6310   21.0570 O.2    44  ASN44      -0.2867
     25  CB        12.7820   19.4410   18.0120 C.3    44  ASN44       0.1155
     26  CG        12.8400   19.1440   16.5270 C.2    44  ASN44       0.2627
     27  OD1       11.9120   19.4670   15.7800 O.2    44  ASN44      -0.2716
     28  ND2       13.9250   18.4910   16.1110 N.am   44  ASN44      -0.0877
     29  N         14.9730   20.5310   23.3610 N.3    46  ASN46      -0.1240
     30  CA        15.1270   21.9390   23.6330 C.3    46  ASN46       0.1653
     31  C         16.2770   22.2450   24.5820 C.2    46  ASN46       0.2266
     32  O         16.6480   21.4210   25.4160 O.2    46  ASN46      -0.2867
     33  CB        13.8310   22.5400   24.1440 C.3    46  ASN46       0.1155
     34  CG        14.0040   24.0230   24.3320 C.2    46  ASN46       0.2627
     35  OD1       14.3930   24.4450   25.4280 O.2    46  ASN46      -0.2716
     36  ND2       13.8330   24.7950   23.2770 N.am   46  ASN46      -0.0877
     37  N         16.3520   23.7200   27.0490 N.3    48  ASP48      -0.1239
     38  CA        15.8760   23.6820   28.4220 C.3    48  ASP48       0.1674
     39  C         16.1240   22.2400   28.8770 C.2    48  ASP48       0.2266
     40  O         15.9220   21.8660   30.0220 O.2    48  ASP48      -0.2867
     41  CB        14.3840   23.9530   28.4810 C.3    48  ASP48       0.1410
     42  CG        13.6070   22.9260   27.6820 C.2    48  ASP48       0.3668
     43  OD1       14.2360   22.1580   26.9190 O.co2  48  ASP48      -0.2456
     44  OD2       12.3780   22.8740   27.8460 O.co2  48  ASP48      -0.2456
     45  N         10.9140   17.7120   23.2510 N.3    52  ASP52      -0.1239
     46  CA         9.5650   17.9030   22.7450 C.3    52  ASP52       0.1674
     47  C          9.1130   16.6140   22.0580 C.2    52  ASP52       0.2266
     48  O          9.9520   15.7960   21.6770 O.2    52  ASP52      -0.2867
     49  CB         9.5730   19.0440   21.7270 C.3    52  ASP52       0.1410
     50  CG         9.9840   20.3550   22.3620 C.2    52  ASP52       0.3668
     51  OD1        9.5310   20.6450   23.4790 O.co2  52  ASP52      -0.2456
     52  OD2       10.8150   21.0610   21.7540 O.co2  52  ASP52      -0.2456
     53  N          2.7960   18.2760   17.9760 N.3    56  LEU56      -0.1231
     54  CA         2.3150   19.0450   19.0910 C.3    56  LEU56       0.1693
     55  C          3.5090   19.7660   19.7070 C.2    56  LEU56       0.2592
     56  O          3.3850   20.8490   20.2720 O.2    56  LEU56      -0.2718
     57  CB         1.6940   18.0850   20.1210 C.3    56  LEU56       0.0284
     58  CG         0.3770   17.4040   19.7130 C.3    56  LEU56       0.0019
     59  CD1        0.1210   16.1680   20.5740 C.3    56  LEU56       0.0001
     60  CD2       -0.7840   18.3820   19.8520 C.3    56  LEU56       0.0001
     61  N          4.6840   19.1540   19.5670 N.am   57  GLN57      -0.1966
     62  CA         5.8970   19.7350   20.1230 C.3    57  GLN57       0.1733
     63  C          5.7710   19.9590   21.6380 C.2    57  GLN57       0.2616
     64  O          6.0020   21.0670   22.1350 O.2    57  GLN57      -0.2715
     65  CB         6.2370   21.0570   19.4200 C.3    57  GLN57       0.0408
     66  CG         6.5790   20.9100   17.9420 C.3    57  GLN57       0.0908
     67  CD         7.8970   20.2110   17.7090 C.2    57  GLN57       0.2608
     68  OE1        8.9350   20.6150   18.2410 O.2    57  GLN57      -0.2717
     69  NE2        7.8530   19.1480   16.9180 N.am   57  GLN57      -0.0878
     70  N          5.3950   18.8950   22.3550 N.am   58  ILE58      -0.1963
     71  CA         5.2720   18.9150   23.8150 C.3    58  ILE58       0.1727
     72  C          6.5490   18.3590   24.4400 C.2    58  ILE58       0.2616
     73  O          7.1200   17.4010   23.9270 O.2    58  ILE58      -0.2715
     74  CB         4.1020   18.0320   24.3020 C.3    58  ILE58       0.0290
     75  CG1        2.7130   18.5200   23.8970 C.3    58  ILE58       0.0022
     76  CG2        4.1790   17.8170   25.8120 C.3    58  ILE58       0.0023
     77  CD1        1.5930   17.5820   24.3030 C.3    58  ILE58       0.0001
     78  N          7.0060   18.9310   25.5450 N.am   59  ASN59      -0.1972
     79  CA         8.2350   18.4130   26.1430 C.3    59  ASN59       0.1688
     80  C          7.9810   17.7020   27.4730 C.2    59  ASN59       0.2292
     81  O          6.9620   17.9170   28.1450 O.2    59  ASN59      -0.2864
     82  CB         9.2940   19.5040   26.2520 C.3    59  ASN59       0.1181
     83  CG         8.8470   20.6750   27.1010 C.2    59  ASN59       0.2629
     84  OD1        7.8350   20.5970   27.8020 O.2    59  ASN59      -0.2716
     85  ND2        9.5760   21.7790   27.0060 N.am   59  ASN59      -0.0877
     86  N          9.4310   18.0110   30.2450 N.3    61  ARG61      -0.1231
     87  CA         9.7190   18.7760   31.4480 C.3    61  ARG61       0.1694
     88  C          8.4760   18.9830   32.2930 C.2    61  ARG61       0.2592
     89  O          8.4560   18.6210   33.4720 O.2    61  ARG61      -0.2718
     90  CB        10.2470   20.1620   31.0670 C.3    61  ARG61       0.0321
     91  CG        10.4550   21.0790   32.2620 C.3    61  ARG61       0.0489
     92  CD        10.9320   22.4590   31.8270 C.3    61  ARG61       0.2205
     93  NE        12.3210   22.7130   32.2090 N.pl3  61  ARG61      -0.0865
     94  CZ        13.3760   22.1100   31.6610 C.cat  61  ARG61       0.5346
     95  NH1       14.4090   21.7380   32.4190 N.pl3  61  ARG61       0.1354
     96  NH2       13.4050   21.8740   30.3550 N.pl3  61  ARG61       0.1354
     97  N          7.4400   19.5540   31.6740 N.am   62  TRP62      -0.1962
     98  CA         6.1960   19.8370   32.3650 C.3    62  TRP62       0.1771
     99  C          5.1150   18.8200   32.0460 C.2    62  TRP62       0.2619
    100  O          4.4390   18.3140   32.9430 O.2    62  TRP62      -0.2715
    101  CB         5.6290   21.2120   31.9600 C.3    62  TRP62       0.0590
    102  CG         6.3670   22.4200   32.4320 C.ar   62  TRP62       0.0006
    103  CD1        7.1780   23.2090   31.6700 C.ar   62  TRP62       0.0946
    104  CD2        6.3430   23.0300   33.7400 C.ar   62  TRP62       0.0152
    105  NE1        7.6760   24.2510   32.4180 N.ar   62  TRP62      -0.2442
    106  CE2        7.1850   24.1650   33.6890 C.ar   62  TRP62       0.0810
    107  CE3        5.7160   22.7300   34.9460 C.ar   62  TRP62       0.0012
    108  CZ2        7.4110   24.9890   34.7910 C.ar   62  TRP62       0.0191
    109  CZ3        5.9430   23.5530   36.0380 C.ar   62  TRP62       0.0001
    110  CH2        6.7840   24.6670   35.9560 C.ar   62  TRP62       0.0015
    111  N          4.9450   18.5120   30.7600 N.am   63  TRP63      -0.1974
    112  CA         3.8080   17.7080   30.3830 C.3    63  TRP63       0.1640
    113  C          3.9210   16.2000   30.4310 C.2    63  TRP63       0.2290
    114  O          2.9850   15.5770   30.9470 O.2    63  TRP63      -0.2864
    115  CB         3.2210   18.2100   29.0620 C.3    63  TRP63       0.0576
    116  CG         2.7160   19.6040   29.2900 C.ar   63  TRP63       0.0006
    117  CD1        3.2570   20.7490   28.7930 C.ar   63  TRP63       0.0946
    118  CD2        1.7620   20.0150   30.2810 C.ar   63  TRP63       0.0152
    119  NE1        2.6090   21.8440   29.3060 N.ar   63  TRP63      -0.2442
    120  CE2        1.6940   21.4240   30.2340 C.ar   63  TRP63       0.0810
    121  CE3        0.9180   19.3260   31.1600 C.ar   63  TRP63       0.0012
    122  CZ2        0.8190   22.1610   31.0310 C.ar   63  TRP63       0.0191
    123  CZ3        0.0520   20.0600   31.9540 C.ar   63  TRP63       0.0001
    124  CH2        0.0090   21.4610   31.8850 C.ar   63  TRP63       0.0015
    125  N         -4.1150   21.3260   28.5880 N.3    98  ILE98      -0.1245
    126  CA        -3.0700   22.3400   28.5780 C.3    98  ILE98       0.1561
    127  C         -3.6480   23.7450   28.4880 C.2    98  ILE98       0.2260
    128  O         -2.9150   24.7300   28.6010 O.2    98  ILE98      -0.2867
    129  CB        -2.0480   22.1070   27.4490 C.3    98  ILE98       0.0252
    130  CG1       -1.0900   20.9440   27.7250 C.3    98  ILE98       0.0019
    131  CG2       -1.2740   23.3800   27.1670 C.3    98  ILE98       0.0019
    132  CD1       -0.2420   20.5450   26.5420 C.3    98  ILE98       0.0001
    133  N          1.1220   28.6230   26.5120 N.3   107  ALA107     -0.1231
    134  CA         2.1700   27.6390   26.4510 C.3   107  ALA107      0.1694
    135  C          2.6600   27.5150   25.0080 C.2   107  ALA107      0.2592
    136  O          3.8520   27.3190   24.7780 O.2   107  ALA107     -0.2718
    137  CB         1.6770   26.2990   26.9770 C.3   107  ALA107      0.0304
    138  N          1.7440   27.6560   24.0260 N.am  108  TRP108     -0.1962
    139  CA         2.1630   27.5600   22.6210 C.3   108  TRP108      0.1771
    140  C          2.9110   28.8240   22.2060 C.2   108  TRP108      0.2619
    141  O          2.4280   29.9460   22.3760 O.2   108  TRP108     -0.2715
    142  CB         1.0150   27.2800   21.6380 C.3   108  TRP108      0.0590
    143  CG         0.5430   25.8550   21.6180 C.ar  108  TRP108      0.0006
    144  CD1        0.9570   24.8740   20.7530 C.ar  108  TRP108      0.0946
    145  CD2       -0.4550   25.2480   22.4550 C.ar  108  TRP108      0.0152
    146  NE1        0.3050   23.6930   21.0230 N.ar  108  TRP108     -0.2442
    147  CE2       -0.5720   23.8960   22.0560 C.ar  108  TRP108      0.0810
    148  CE3       -1.2510   25.7090   23.5110 C.ar  108  TRP108      0.0012
    149  CZ2       -1.4500   23.0080   22.6740 C.ar  108  TRP108      0.0191
    150  CZ3       -2.1200   24.8220   24.1210 C.ar  108  TRP108      0.0001
    151  CH2       -2.2120   23.4870   23.7030 C.ar  108  TRP108      0.0015
    152  N          4.1010   28.5970   21.6540 N.am  109  VAL109     -0.1963
    153  CA         5.0430   29.6300   21.2690 C.3   109  VAL109      0.1727
    154  C          4.8200   30.2500   19.8890 C.2   109  VAL109      0.2616
    155  O          4.6950   31.4820   19.7670 O.2   109  VAL109     -0.2715
    156  CB         6.4730   29.0270   21.2890 C.3   109  VAL109      0.0290
    157  CG1        7.5280   30.0940   21.0750 C.3   109  VAL109      0.0023
    158  CG2        6.7060   28.2780   22.5900 C.3   109  VAL109      0.0023
    159  N          4.7540   29.4210   18.8480 N.am  110  ALA110     -0.1977
    160  CA         4.6470   29.9370   17.4790 C.3   110  ALA110      0.1597
    161  C          3.3430   30.6710   17.1910 C.2   110  ALA110      0.2287
    162  O          3.3610   31.8070   16.6920 O.2   110  ALA110     -0.2864
    163  CB         4.8450   28.8070   16.4750 C.3   110  ALA110      0.0319
@<TRIPOS>BOND
     1    11     9   ar
     2    11    10   ar
     3     9     7   ar
     4    10     8   ar
     5     7     6   ar
     6     8     6   ar
     7     6     5    1
     8     1     2    1
     9     2     5    1
    10     2     3    1
    11     3    12   am
    12     3     4    2
    13    12    13    1
    14    14    15    2
    15    14    13    1
    16    13    16    1
    17    27    26    2
    18    28    26   am
    19    16    17    1
    20   163   160    1
    21    26    25    1
    22   162   161    2
    23    69    67   am
    24    17    18    1
    25   161   160    1
    26   160   159    1
    27    19    18   ar
    28    67    66    1
    29    67    68    2
    30    66    65    1
    31    53    54    1
    32    25    22    1
    33    18    20   ar
    34    21    22    1
    35    22    23    1
    36   159   154   am
    37    54    55    1
    38    54    57    1
    39    65    62    1
    40    61    55   am
    41    61    62    1
    42    55    56    2
    43    58    60    1
    44    58    57    1
    45    58    59    1
    46   155   154    2
    47   154   153    1
    48    62    63    1
    49    23    24    2
    50   144   146   ar
    51   144   143   ar
    52   146   147   ar
    53   157   156    1
    54   153   156    1
    55   153   152    1
    56   156   158    1
    57   143   142    1
    58   143   145   ar
    59   142   139    1
    60    63    64    2
    61    63    70   am
    62   152   140   am
    63    48    47    2
    64    49    50    1
    65    49    46    1
    66    52    50   ar
    67   147   145   ar
    68   147   149   ar
    69    47    46    1
    70   140   141    2
    71   140   139    1
    72    70    71    1
    73    50    51   ar
    74   145   148   ar
    75   139   138    1
    76   149   151   ar
    77    46    45    1
    78    36    34   am
    79    29    30    1
    80   148   150   ar
    81    30    33    1
    82    30    31    1
    83   151   150   ar
    84    71    74    1
    85    71    72    1
    86    75    74    1
    87    75    77    1
    88    73    72    2
    89   138   135   am
    90    33    34    1
    91    74    76    1
    92    34    35    2
    93    72    78   am
    94    31    32    2
    95   136   135    2
    96   135   134    1
    97    78    79    1
    98    79    82    1
    99    79    80    1
   100    82    83    1
   101   134   133    1
   102   134   137    1
   103   132   130    1
   104    43    42   ar
   105    85    83   am
   106    37    38    1
   107    83    84    2
   108   131   129    1
   109   129   130    1
   110   129   126    1
   111    80    81    2
   112    42    44   ar
   113    42    41    1
   114    38    41    1
   115    38    39    1
   116   127   126    1
   117   127   128    2
   118   126   125    1
   119   117   116   ar
   120   117   119   ar
   121    39    40    2
   122   115   116    1
   123   115   112    1
   124   116   118   ar
   125   119   120   ar
   126   120   118   ar
   127   120   122   ar
   128    86    87    1
   129   118   121   ar
   130    96    94    1
   131   112   113    1
   132   112   111    1
   133   113   114    2
   134   111    99   am
   135   122   124   ar
   136    90    87    1
   137    90    91    1
   138   121   123   ar
   139    87    88    1
   140    94    93    2
   141    94    95    1
   142   103   105   ar
   143   103   102   ar
   144    97    88   am
   145    97    98    1
   146    92    93    1
   147    92    91    1
   148   124   123   ar
   149   101    98    1
   150   101   102    1
   151    99    98    1
   152    99   100    2
   153    88    89    2
   154   105   106   ar
   155   102   104   ar
   156   106   104   ar
   157   106   108   ar
   158   104   107   ar
   159   108   110   ar
   160   107   109   ar
   161   110   109   ar
