@<TRIPOS>MOLECULE
tmp/1sf7A00.pdb
 204 200 0 0 0
SMALL
GASTEIGER

@<TRIPOS>ATOM
      1  N          2.5930   25.3270   11.6960 N.3    34  PHE34      -0.1227
      2  CA         3.6180   26.0920   12.3570 C.3    34  PHE34       0.1736
      3  C          4.3120   25.3450   13.4970 C.2    34  PHE34       0.2595
      4  O          5.2730   25.8460   14.0530 O.2    34  PHE34      -0.2718
      5  CB         3.0650   27.4270   12.8680 C.3    34  PHE34       0.0547
      6  CG         2.6550   28.3770   11.7500 C.ar   34  PHE34      -0.0202
      7  CD1        3.5610   28.7220   10.7570 C.ar   34  PHE34      -0.0042
      8  CD2        1.3950   28.9440   11.7310 C.ar   34  PHE34      -0.0042
      9  CE1        3.1910   29.5860    9.7460 C.ar   34  PHE34      -0.0003
     10  CE2        1.0330   29.8190   10.7190 C.ar   34  PHE34      -0.0003
     11  CZ         1.9290   30.1390    9.7280 C.ar   34  PHE34      -0.0000
     12  N          3.8500   24.1600   13.8590 N.am   35  GLU35      -0.1979
     13  CA         4.5260   23.4580   14.9500 C.3    35  GLU35       0.1602
     14  C          5.3210   22.2280   14.5270 C.2    35  GLU35       0.2287
     15  O          6.3590   21.9300   15.1100 O.2    35  GLU35      -0.2864
     16  CB         3.5850   23.1790   16.1090 C.3    35  GLU35       0.0415
     17  CG         3.3110   24.4440   16.9080 C.3    35  GLU35       0.1163
     18  CD         4.6000   24.9410   17.5510 C.2    35  GLU35       0.3649
     19  OE1        5.6700   24.5320   17.0650 O.co2  35  GLU35      -0.2457
     20  OE2        4.5510   25.7390   18.5190 O.co2  35  GLU35      -0.2457
     21  N         15.7000   20.5070   23.5790 N.3    46  ASN46      -0.1240
     22  CA        15.9150   21.9640   23.5650 C.3    46  ASN46       0.1653
     23  C         17.1630   22.4050   24.3190 C.2    46  ASN46       0.2266
     24  O         17.7860   21.6250   25.0460 O.2    46  ASN46      -0.2867
     25  CB        14.6740   22.6380   24.0840 C.3    46  ASN46       0.1155
     26  CG        13.5320   22.3700   23.1660 C.2    46  ASN46       0.2627
     27  OD1       13.6140   22.6420   21.9750 O.2    46  ASN46      -0.2716
     28  ND2       12.4750   21.7910   23.7220 N.am   46  ASN46      -0.0877
     29  N         17.3110   23.9790   26.7170 N.3    48  ASP48      -0.1239
     30  CA        16.8920   23.9570   28.0960 C.3    48  ASP48       0.1674
     31  C         16.8750   22.5200   28.6310 C.2    48  ASP48       0.2266
     32  O         16.7280   22.2910   29.8260 O.2    48  ASP48      -0.2867
     33  CB        15.5060   24.5980   28.1290 C.3    48  ASP48       0.1410
     34  CG        14.5540   23.8170   27.2440 C.2    48  ASP48       0.3668
     35  OD1       14.9820   22.7720   26.7380 O.co2  48  ASP48      -0.2456
     36  OD2       13.4170   24.2750   27.0190 O.co2  48  ASP48      -0.2456
     37  N         14.6420   20.1430   27.8110 N.3    50  SER50      -0.1217
     38  CA        13.3420   19.4840   27.7270 C.3    50  SER50       0.1889
     39  C         13.1670   18.9690   26.3270 C.2    50  SER50       0.2288
     40  O         13.3170   19.7400   25.3560 O.2    50  SER50      -0.2866
     41  CB        12.2350   20.4900   27.9840 C.3    50  SER50       0.2089
     42  OG        12.3970   21.6150   27.1200 O.3    50  SER50      -0.2183
     43  N         11.0720   17.8330   23.1450 N.3    52  ASP52      -0.1239
     44  CA         9.7680   18.0720   22.5580 C.3    52  ASP52       0.1674
     45  C          9.2220   16.7410   22.0230 C.2    52  ASP52       0.2266
     46  O         10.0020   15.8320   21.7630 O.2    52  ASP52      -0.2867
     47  CB         9.8740   19.0780   21.4120 C.3    52  ASP52       0.1410
     48  CG        10.2790   20.4570   21.8710 C.2    52  ASP52       0.3668
     49  OD1        9.9400   20.8310   22.9990 O.co2  52  ASP52      -0.2456
     50  OD2       10.9430   21.1600   21.0910 O.co2  52  ASP52      -0.2456
     51  N          2.7540   18.2000   17.9220 N.3    56  LEU56      -0.1231
     52  CA         2.2660   19.0210   18.9900 C.3    56  LEU56       0.1693
     53  C          3.3810   19.8700   19.6580 C.2    56  LEU56       0.2592
     54  O          3.0910   20.8970   20.2730 O.2    56  LEU56      -0.2718
     55  CB         1.5290   18.1290   20.0030 C.3    56  LEU56       0.0284
     56  CG         0.3170   17.3730   19.4120 C.3    56  LEU56       0.0019
     57  CD1       -0.3310   16.4370   20.4190 C.3    56  LEU56       0.0001
     58  CD2       -0.6960   18.3260   18.8190 C.3    56  LEU56       0.0001
     59  N          4.6460   19.4630   19.5190 N.am   57  GLN57      -0.1966
     60  CA         5.7820   20.2120   20.1170 C.3    57  GLN57       0.1733
     61  C          5.7080   20.3410   21.6670 C.2    57  GLN57       0.2616
     62  O          5.8630   21.4450   22.2070 O.2    57  GLN57      -0.2715
     63  CB         5.8280   21.6390   19.5280 C.3    57  GLN57       0.0408
     64  CG         6.0680   21.7380   18.0310 C.3    57  GLN57       0.0908
     65  CD         7.4690   21.4020   17.5880 C.2    57  GLN57       0.2608
     66  OE1        8.4040   22.1540   17.8080 O.2    57  GLN57      -0.2717
     67  NE2        7.6040   20.2690   16.9300 N.am   57  GLN57      -0.0878
     68  N          5.4850   19.2190   22.3620 N.am   58  ILE58      -0.1963
     69  CA         5.3710   19.1670   23.8360 C.3    58  ILE58       0.1727
     70  C          6.6940   18.8020   24.5480 C.2    58  ILE58       0.2616
     71  O          7.4800   18.0230   24.0280 O.2    58  ILE58      -0.2715
     72  CB         4.3480   18.0880   24.2300 C.3    58  ILE58       0.0290
     73  CG1        2.9280   18.3210   23.7070 C.3    58  ILE58       0.0022
     74  CG2        4.3580   17.8540   25.7380 C.3    58  ILE58       0.0023
     75  CD1        2.0290   17.0980   23.8210 C.3    58  ILE58       0.0001
     76  N          6.9280   19.3580   25.7550 N.am   59  ASN59      -0.1972
     77  CA         8.1680   19.0760   26.5090 C.3    59  ASN59       0.1688
     78  C          8.0080   18.0060   27.6060 C.2    59  ASN59       0.2292
     79  O          7.0120   17.9750   28.3420 O.2    59  ASN59      -0.2864
     80  CB         8.7700   20.3690   27.0550 C.3    59  ASN59       0.1181
     81  CG         7.8500   21.1390   28.0070 C.2    59  ASN59       0.2629
     82  OD1        6.7660   20.6880   28.3450 O.2    59  ASN59      -0.2716
     83  ND2        8.2860   22.3210   28.4400 N.am   59  ASN59      -0.0877
     84  N          9.4480   17.8660   30.1630 N.3    61  ARG61      -0.1231
     85  CA         9.6910   18.6510   31.3640 C.3    61  ARG61       0.1694
     86  C          8.4600   18.8850   32.2450 C.2    61  ARG61       0.2592
     87  O          8.4950   18.5890   33.4520 O.2    61  ARG61      -0.2718
     88  CB        10.2060   20.0240   30.9030 C.3    61  ARG61       0.0321
     89  CG        10.3980   21.0660   31.9760 C.3    61  ARG61       0.0489
     90  CD        10.9340   22.3590   31.3610 C.3    61  ARG61       0.2205
     91  NE        12.3740   22.5230   31.5900 N.pl3  61  ARG61      -0.0865
     92  CZ        13.3030   22.6340   30.6460 C.cat  61  ARG61       0.5346
     93  NH1       14.5840   22.5330   30.9670 N.pl3  61  ARG61       0.1354
     94  NH2       12.9590   22.8440   29.3960 N.pl3  61  ARG61       0.1354
     95  N          7.3760   19.4040   31.6560 N.am   62  TRP62      -0.1962
     96  CA         6.1590   19.6810   32.4130 C.3    62  TRP62       0.1771
     97  C          5.0390   18.6960   32.1390 C.2    62  TRP62       0.2619
     98  O          4.1920   18.4720   33.0130 O.2    62  TRP62      -0.2715
     99  CB         5.5830   21.0800   32.0970 C.3    62  TRP62       0.0590
    100  CG         6.2840   22.2840   32.6440 C.ar   62  TRP62       0.0006
    101  CD1        7.0510   23.1570   31.9340 C.ar   62  TRP62       0.0946
    102  CD2        6.2780   22.7820   34.0000 C.ar   62  TRP62       0.0152
    103  NE1        7.5270   24.1550   32.7540 N.ar   62  TRP62      -0.2442
    104  CE2        7.0730   23.9510   34.0190 C.ar   62  TRP62       0.0810
    105  CE3        5.6900   22.3610   35.1930 C.ar   62  TRP62       0.0012
    106  CZ2        7.2950   24.6970   35.1770 C.ar   62  TRP62       0.0191
    107  CZ3        5.9110   23.1050   36.3420 C.ar   62  TRP62       0.0001
    108  CH2        6.7080   24.2600   36.3250 C.ar   62  TRP62       0.0015
    109  N          4.9850   18.1000   30.9360 N.am   63  TRP63      -0.1974
    110  CA         3.8460   17.2450   30.7020 C.3    63  TRP63       0.1640
    111  C          3.9790   15.7360   30.6370 C.2    63  TRP63       0.2290
    112  O          3.1550   15.0710   31.2680 O.2    63  TRP63      -0.2864
    113  CB         3.0670   17.7760   29.4810 C.3    63  TRP63       0.0576
    114  CG         2.5160   19.1430   29.7730 C.ar   63  TRP63       0.0006
    115  CD1        2.9660   20.3240   29.2620 C.ar   63  TRP63       0.0946
    116  CD2        1.4670   19.4720   30.6920 C.ar   63  TRP63       0.0152
    117  NE1        2.2420   21.3680   29.7780 N.ar   63  TRP63      -0.2442
    118  CE2        1.3130   20.8730   30.6640 C.ar   63  TRP63       0.0810
    119  CE3        0.6310   18.7210   31.5300 C.ar   63  TRP63       0.0012
    120  CZ2        0.3560   21.5370   31.4390 C.ar   63  TRP63       0.0191
    121  CZ3       -0.3170   19.3800   32.2970 C.ar   63  TRP63       0.0001
    122  CH2       -0.4490   20.7700   32.2480 C.ar   63  TRP63       0.0015
    123  N         -4.8200   21.7370   28.6150 N.3    98  ILE98      -0.1245
    124  CA        -3.6100   22.5660   28.7150 C.3    98  ILE98       0.1561
    125  C         -3.9550   24.0400   28.6940 C.2    98  ILE98       0.2260
    126  O         -3.1140   24.8840   29.0320 O.2    98  ILE98      -0.2867
    127  CB        -2.6130   22.3030   27.5760 C.3    98  ILE98       0.0252
    128  CG1       -1.8590   20.9880   27.6750 C.3    98  ILE98       0.0019
    129  CG2       -1.6410   23.4650   27.4590 C.3    98  ILE98       0.0019
    130  CD1       -1.0370   20.6770   26.4460 C.3    98  ILE98       0.0001
    131  N         -6.0820   25.4310   32.3740 N.3   101  ASP101     -0.1225
    132  CA        -5.2020   25.7390   33.5040 C.3   101  ASP101      0.1805
    133  C         -5.1650   27.2740   33.6860 C.2   101  ASP101      0.2598
    134  O         -4.5660   27.7910   34.6140 O.2   101  ASP101     -0.2718
    135  CB        -3.8260   25.0830   33.2410 C.3   101  ASP101      0.1424
    136  CG        -2.7840   25.0850   34.3530 C.2   101  ASP101      0.3668
    137  OD1       -3.0780   25.5280   35.4840 O.co2 101  ASP101     -0.2456
    138  OD2       -1.6510   24.5940   34.0910 O.co2 101  ASP101     -0.2456
    139  N         -5.8690   27.9830   32.7780 N.am  102  GLY102     -0.1942
    140  CA        -5.9740   29.4290   32.7800 C.3   102  GLY102      0.2014
    141  C         -5.0380   30.3330   32.0330 C.2   102  GLY102      0.2639
    142  O         -5.1240   31.5720   32.1610 O.2   102  GLY102     -0.2714
    143  N         -4.1300   29.7860   31.2600 N.am  103  ASN103     -0.1958
    144  CA        -3.2620   30.6800   30.5230 C.3   103  ASN103      0.1819
    145  C         -3.4410   30.4620   29.0170 C.2   103  ASN103      0.2621
    146  O         -2.7440   31.0700   28.2150 O.2   103  ASN103     -0.2715
    147  CB        -1.8460   30.6530   31.0640 C.3   103  ASN103      0.1195
    148  CG        -0.8860   31.6460   30.4550 C.2   103  ASN103      0.2630
    149  OD1       -1.2750   32.5910   29.7600 O.2   103  ASN103     -0.2716
    150  ND2        0.3840   31.4820   30.8090 N.am  103  ASN103     -0.0877
    151  N         -4.4120   29.5800   28.6030 N.am  104  GLY104     -0.1954
    152  CA        -4.5690   29.4770   27.1850 C.3   104  GLY104      0.1869
    153  C         -3.4540   28.8750   26.3950 C.2   104  GLY104      0.2309
    154  O         -2.6750   28.0520   26.8380 O.2   104  GLY104     -0.2863
    155  N         -0.9560   30.2050   25.5810 N.3   106  ASN106     -0.1225
    156  CA         0.3470   30.7380   25.9740 C.3   106  ASN106      0.1785
    157  C          1.3690   29.6380   26.0330 C.2   106  ASN106      0.2597
    158  O          2.5470   29.8770   25.7690 O.2   106  ASN106     -0.2718
    159  CB         0.2420   31.5490   27.2700 C.3   106  ASN106      0.1169
    160  CG         1.5380   32.2060   27.7230 C.2   106  ASN106      0.2627
    161  OD1        2.5830   32.0940   27.0810 O.2   106  ASN106     -0.2716
    162  ND2        1.4360   33.0140   28.7810 N.am  106  ASN106     -0.0877
    163  N          0.9420   28.4250   26.3330 N.am  107  ALA107     -0.1966
    164  CA         1.9090   27.3570   26.3530 C.3   107  ALA107      0.1728
    165  C          2.4850   27.2910   24.9400 C.2   107  ALA107      0.2616
    166  O          3.7040   27.2480   24.7430 O.2   107  ALA107     -0.2715
    167  CB         1.2440   26.0500   26.7340 C.3   107  ALA107      0.0334
    168  N          1.6170   27.3440   23.9450 N.am  108  TRP108     -0.1960
    169  CA         2.1500   27.2980   22.6050 C.3   108  TRP108      0.1771
    170  C          2.8200   28.6270   22.3350 C.2   108  TRP108      0.2620
    171  O          2.2940   29.6840   22.6950 O.2   108  TRP108     -0.2715
    172  CB         1.0700   26.9980   21.5570 C.3   108  TRP108      0.0590
    173  CG         0.6970   25.5480   21.5540 C.ar  108  TRP108      0.0006
    174  CD1        1.1950   24.5600   20.7520 C.ar  108  TRP108      0.0946
    175  CD2       -0.2600   24.9330   22.4210 C.ar  108  TRP108      0.0152
    176  NE1        0.6130   23.3670   21.0730 N.ar  108  TRP108     -0.2442
    177  CE2       -0.3020   23.5730   22.0940 C.ar  108  TRP108      0.0810
    178  CE3       -1.0880   25.4180   23.4430 C.ar  108  TRP108      0.0012
    179  CZ2       -1.1430   22.6830   22.7550 C.ar  108  TRP108      0.0191
    180  CZ3       -1.9190   24.5320   24.1020 C.ar  108  TRP108      0.0001
    181  CH2       -1.9430   23.1790   23.7560 C.ar  108  TRP108      0.0015
    182  N          3.9940   28.5400   21.7140 N.am  109  VAL109     -0.1963
    183  CA         4.8280   29.6740   21.3800 C.3   109  VAL109      0.1727
    184  C          4.5810   30.2800   19.9810 C.2   109  VAL109      0.2616
    185  O          4.3620   31.5010   19.8450 O.2   109  VAL109     -0.2715
    186  CB         6.3070   29.2090   21.4260 C.3   109  VAL109      0.0290
    187  CG1        7.2670   30.3700   21.2890 C.3   109  VAL109      0.0023
    188  CG2        6.5630   28.4130   22.6950 C.3   109  VAL109      0.0023
    189  N          4.6050   29.4360   18.9440 N.am  110  ALA110     -0.1977
    190  CA         4.4610   29.9150   17.5730 C.3   110  ALA110      0.1597
    191  C          3.1800   30.6830   17.3110 C.2   110  ALA110      0.2287
    192  O          3.2180   31.7890   16.7350 O.2   110  ALA110     -0.2864
    193  CB         4.5660   28.7440   16.6100 C.3   110  ALA110      0.0319
    194  N          1.2710   32.4530   19.2210 N.3   112  ARG112     -0.1245
    195  CA         1.2520   33.7940   19.7990 C.3   112  ARG112      0.1563
    196  C          1.8420   34.7980   18.8690 C.2   112  ARG112      0.2260
    197  O          1.5800   36.0060   18.9800 O.2   112  ARG112     -0.2867
    198  CB         1.9780   33.8580   21.1510 C.3   112  ARG112      0.0307
    199  CG         2.1290   35.3000   21.6510 C.3   112  ARG112      0.0489
    200  CD         2.5830   35.3790   23.0910 C.3   112  ARG112      0.2205
    201  NE         3.7830   34.6120   23.3730 N.pl3 112  ARG112     -0.0865
    202  CZ         3.8760   33.8320   24.4450 C.cat 112  ARG112      0.5346
    203  NH1        2.9680   33.9560   25.4060 N.pl3 112  ARG112      0.1354
    204  NH2        4.8580   32.9490   24.5640 N.pl3 112  ARG112      0.1354
@<TRIPOS>BOND
     1    11     9   ar
     2    11    10   ar
     3     9     7   ar
     4    10     8   ar
     5     7     6   ar
     6     1     2    1
     7     8     6   ar
     8     6     5    1
     9     2     5    1
    10     2     3    1
    11     3    12   am
    12     3     4    2
    13    12    13    1
    14    14    13    1
    15    14    15    2
    16    13    16    1
    17    16    17    1
    18   193   190    1
    19   192   191    2
    20    17    18    1
    21    67    65   am
    22    19    18   ar
    23   191   190    1
    24    18    20   ar
    25   190   189    1
    26    65    66    2
    27    65    64    1
    28    51    52    1
    29    64    63    1
    30    58    56    1
    31   196   197    2
    32   196   195    1
    33   189   184   am
    34    52    53    1
    35    52    55    1
    36   194   195    1
    37    56    55    1
    38    56    57    1
    39    59    53   am
    40    59    60    1
    41    63    60    1
    42    53    54    2
    43   195   198    1
    44   185   184    2
    45   184   183    1
    46    60    61    1
    47   174   176   ar
    48   174   173   ar
    49   176   177   ar
    50    50    48   ar
    51   198   199    1
    52   187   186    1
    53   183   186    1
    54   183   182    1
    55    47    48    1
    56    47    44    1
    57   186   188    1
    58   173   172    1
    59   173   175   ar
    60   172   169    1
    61   199   200    1
    62    61    62    2
    63    61    68   am
    64   182   170   am
    65    46    45    2
    66    48    49   ar
    67    27    26    2
    68    45    44    1
    69   177   175   ar
    70   177   179   ar
    71   170   169    1
    72   170   171    2
    73    68    69    1
    74   175   178   ar
    75    44    43    1
    76   169   168    1
    77   179   181   ar
    78   200   201    1
    79    26    28   am
    80    26    25    1
    81   201   202    2
    82   178   180   ar
    83    22    21    1
    84    22    25    1
    85    22    23    1
    86    73    75    1
    87    73    72    1
    88   181   180   ar
    89    69    72    1
    90    69    70    1
    91   168   165   am
    92    71    70    2
    93    72    74    1
    94    23    24    2
    95   202   204    1
    96   202   203    1
    97    70    76   am
    98   166   165    2
    99   165   164    1
   100    40    39    2
   101   155   156    1
   102    76    77    1
   103   158   157    2
   104   156   157    1
   105   156   159    1
   106   157   163   am
   107    39    38    1
   108   163   164    1
   109   164   167    1
   110   153   154    2
   111   153   152    1
   112   130   128    1
   113    77    80    1
   114    77    78    1
   115    29    30    1
   116    35    34   ar
   117    36    34   ar
   118    80    81    1
   119   161   160    2
   120    42    41    1
   121   152   151    1
   122    34    33    1
   123   159   160    1
   124   129   127    1
   125   127   128    1
   126   127   124    1
   127    78    79    2
   128   160   162   am
   129    38    37    1
   130    38    41    1
   131    81    82    2
   132    81    83   am
   133    30    33    1
   134    30    31    1
   135   146   145    2
   136   151   145   am
   137   123   124    1
   138    31    32    2
   139   125   124    1
   140   125   126    2
   141   145   144    1
   142   115   114   ar
   143   115   117   ar
   144    94    92    1
   145   113   114    1
   146   113   110    1
   147   149   148    2
   148   114   116   ar
   149   117   118   ar
   150    84    85    1
   151   148   150   am
   152   148   147    1
   153   144   147    1
   154   144   143    1
   155   111   110    1
   156   111   112    2
   157    92    93    1
   158    92    91    2
   159   118   116   ar
   160   118   120   ar
   161   116   119   ar
   162   110   109    1
   163    88    85    1
   164    88    89    1
   165   109    97   am
   166   143   141   am
   167    90    91    1
   168    90    89    1
   169    85    86    1
   170   120   122   ar
   171   119   121   ar
   172    95    86   am
   173    95    96    1
   174   101   100   ar
   175   101   103   ar
   176   141   142    2
   177   141   140    1
   178    99    96    1
   179    99   100    1
   180    97    96    1
   181    97    98    2
   182    86    87    2
   183   122   121   ar
   184   131   132    1
   185   100   102   ar
   186   103   104   ar
   187   139   140    1
   188   139   133   am
   189   135   132    1
   190   135   136    1
   191   132   133    1
   192   133   134    2
   193   102   104   ar
   194   102   105   ar
   195   104   106   ar
   196   138   136   ar
   197   136   137   ar
   198   106   108   ar
   199   105   107   ar
   200   108   107   ar
