@<TRIPOS>MOLECULE
tmp/1sffA00.pdb
 137 130 0 0 0
SMALL
GASTEIGER

@<TRIPOS>ATOM
      1  N         42.7700   32.6180   17.5820 N.3    49  ILE49      -0.1245
      2  CA        42.0980   32.0560   18.7500 C.3    49  ILE49       0.1561
      3  C         40.5770   32.0360   18.5680 C.2    49  ILE49       0.2260
      4  O         39.8250   32.6740   19.3220 O.2    49  ILE49      -0.2867
      5  CB        42.4060   32.7370   20.1110 C.3    49  ILE49       0.0252
      6  CG1       43.8970   33.0840   20.2710 C.3    49  ILE49       0.0019
      7  CG2       42.0810   31.7230   21.2350 C.3    49  ILE49       0.0019
      8  CD1       44.2760   33.3620   21.7430 C.3    49  ILE49       0.0001
      9  N         34.5560   43.5590   23.8670 N.3   109  THR109     -0.1203
     10  CA        35.3700   42.3420   24.0620 C.3   109  THR109      0.1994
     11  C         34.6180   41.2190   24.7880 C.2   109  THR109      0.2618
     12  O         33.5970   41.4550   25.4410 O.2   109  THR109     -0.2717
     13  CB        36.6700   42.6530   24.8500 C.3   109  THR109      0.1784
     14  OG1       36.3260   42.9470   26.2120 O.3   109  THR109     -0.2211
     15  CG2       37.3710   43.9100   24.2730 C.3   109  THR109      0.0376
     16  N         35.1340   39.9930   24.6780 N.am  110  GLY110     -0.1942
     17  CA        34.5050   38.8500   25.3390 C.3   110  GLY110      0.2014
     18  C         34.4610   39.0290   26.8660 C.2   110  GLY110      0.2639
     19  O         33.4610   38.6720   27.5160 O.2   110  GLY110     -0.2714
     20  N         35.5420   39.5560   27.4460 N.am  111  SER111     -0.1949
     21  CA        35.5680   39.7990   28.8950 C.3   111  SER111      0.1924
     22  C         34.4610   40.7900   29.2540 C.2   111  SER111      0.2314
     23  O         33.7590   40.6070   30.2560 O.2   111  SER111     -0.2863
     24  CB        36.9390   40.3560   29.3510 C.3   111  SER111      0.2116
     25  OG        37.2150   41.6150   28.7900 O.3   111  SER111     -0.2180
     26  N         31.0970   38.9720   29.3220 N.3   114  VAL114     -0.1245
     27  CA        30.8510   38.2150   30.5550 C.3   114  VAL114      0.1561
     28  C         30.5920   39.1700   31.7320 C.2   114  VAL114      0.2260
     29  O         29.6870   38.9260   32.5630 O.2   114  VAL114     -0.2867
     30  CB        32.0190   37.2400   30.8910 C.3   114  VAL114      0.0252
     31  CG1       31.7090   36.4650   32.1910 C.3   114  VAL114      0.0019
     32  CG2       32.2090   36.2540   29.7080 C.3   114  VAL114      0.0019
     33  N         37.4400   29.5840   31.5530 N.3   137  TYR137     -0.1227
     34  CA        38.1780   30.7840   31.1680 C.3   137  TYR137      0.1736
     35  C         37.1210   31.7900   30.7190 C.2   137  TYR137      0.2595
     36  O         36.3820   31.5040   29.7880 O.2   137  TYR137     -0.2718
     37  CB        39.1230   30.5270   30.0090 C.3   137  TYR137      0.0548
     38  CG        39.9420   31.7260   29.6960 C.ar  137  TYR137     -0.0200
     39  CD1       41.1920   31.9330   30.3190 C.ar  137  TYR137     -0.0009
     40  CD2       39.4770   32.6910   28.8080 C.ar  137  TYR137     -0.0009
     41  CE1       41.9480   33.0760   30.0610 C.ar  137  TYR137      0.0417
     42  CE2       40.2350   33.8620   28.5510 C.ar  137  TYR137      0.0417
     43  CZ        41.4640   34.0450   29.1910 C.ar  137  TYR137      0.1957
     44  OH        42.1590   35.2480   29.0320 O.3   137  TYR137     -0.2866
     45  N         37.1250   32.9940   31.3080 N.am  138  HIS138     -0.1961
     46  CA        36.1110   33.9880   31.0010 C.3   138  HIS138      0.1787
     47  C         36.6470   35.3880   30.7300 C.2   138  HIS138      0.2621
     48  O         35.8850   36.3290   30.5100 O.2   138  HIS138     -0.2715
     49  CB        35.0990   33.9910   32.1600 C.3   138  HIS138      0.0785
     50  CG        34.3060   32.7210   32.2410 C.ar  138  HIS138      0.0821
     51  ND1       34.3870   31.8290   33.3030 N.ar  138  HIS138     -0.2267
     52  CD2       33.4360   32.1750   31.3560 C.ar  138  HIS138      0.1154
     53  CE1       33.6000   30.7920   33.0610 C.ar  138  HIS138      0.1986
     54  NE2       33.0170   30.9770   31.8820 N.ar  138  HIS138     -0.2212
     55  N         37.9700   35.5430   30.7790 N.am  139  GLY139     -0.1940
     56  CA        38.5360   36.8400   30.5090 C.3   139  GLY139      0.2014
     57  C         39.6080   37.3110   31.4880 C.2   139  GLY139      0.2638
     58  O         39.8580   36.6920   32.5300 O.2   139  GLY139     -0.2714
     59  N         40.1460   38.4780   31.1590 N.am  140  ARG140     -0.1977
     60  CA        41.2580   39.1000   31.8840 C.3   140  ARG140      0.1597
     61  C         40.9800   40.3640   32.6840 C.2   140  ARG140      0.2287
     62  O         41.9250   41.0990   33.0270 O.2   140  ARG140     -0.2864
     63  CB        42.3930   39.3430   30.8860 C.3   140  ARG140      0.0334
     64  CG        43.0180   38.0580   30.3280 C.3   140  ARG140      0.0492
     65  CD        44.0270   38.4080   29.2200 C.3   140  ARG140      0.2205
     66  NE        44.7060   37.2490   28.6230 N.pl3 140  ARG140     -0.0865
     67  CZ        45.7770   36.6440   29.1450 C.cat 140  ARG140      0.5346
     68  NH1       46.3000   37.0710   30.2770 N.pl3 140  ARG140      0.1354
     69  NH2       46.3530   35.6370   28.5090 N.pl3 140  ARG140      0.1354
     70  N         47.2410   33.7270   34.0810 N.3   154  TYR154     -0.1241
     71  CA        46.2720   34.8060   33.9630 C.3   154  TYR154      0.1605
     72  C         46.1890   35.8430   35.0760 C.2   154  TYR154      0.2264
     73  O         45.9630   36.9940   34.7870 O.2   154  TYR154     -0.2867
     74  CB        44.8980   34.1980   33.7290 C.3   154  TYR154      0.0534
     75  CG        44.9390   33.1390   32.6560 C.ar  154  TYR154     -0.0201
     76  CD1       44.3900   31.8860   32.8820 C.ar  154  TYR154     -0.0009
     77  CD2       45.5240   33.4000   31.4130 C.ar  154  TYR154     -0.0009
     78  CE1       44.4090   30.9200   31.9170 C.ar  154  TYR154      0.0417
     79  CE2       45.5410   32.4240   30.4230 C.ar  154  TYR154      0.0417
     80  CZ        44.9810   31.1940   30.6800 C.ar  154  TYR154      0.1957
     81  OH        44.9440   30.2170   29.6980 O.3   154  TYR154     -0.2866
     82  N         30.9080   27.4370   30.2100 N.3   205  GLU205     -0.1245
     83  CA        31.1790   27.3580   28.7720 C.3   205  GLU205      0.1567
     84  C         30.5790   26.0090   28.3180 C.2   205  GLU205      0.2260
     85  O         30.9810   24.9650   28.8360 O.2   205  GLU205     -0.2867
     86  CB        32.6810   27.3210   28.5120 C.3   205  GLU205      0.0388
     87  CG        33.4290   28.6230   28.8320 C.3   205  GLU205      0.1160
     88  CD        34.9040   28.3040   29.0970 C.2   205  GLU205      0.3649
     89  OE1       35.1970   27.9790   30.2620 O.co2 205  GLU205     -0.2457
     90  OE2       35.7410   28.3280   28.1510 O.co2 205  GLU205     -0.2457
     91  N         39.8840   27.4510   26.5470 N.3   210  GLU210     -0.1245
     92  CA        41.2360   27.4510   27.0910 C.3   210  GLU210      0.1567
     93  C         41.3930   26.2810   28.0750 C.2   210  GLU210      0.2260
     94  O         42.5090   25.7870   28.3020 O.2   210  GLU210     -0.2867
     95  CB        41.4800   28.7780   27.8010 C.3   210  GLU210      0.0388
     96  CG        41.2680   30.0200   26.8940 C.3   210  GLU210      0.1160
     97  CD        42.0450   29.8990   25.5910 C.2   210  GLU210      0.3649
     98  OE1       43.2780   29.6790   25.6460 O.co2 210  GLU210     -0.2457
     99  OE2       41.4310   30.0080   24.5120 O.co2 210  GLU210     -0.2457
    100  N         28.5980   31.0130   28.4260 N.3   238  ASP238     -0.1239
    101  CA        29.6470   31.8310   27.8250 C.3   238  ASP238      0.1674
    102  C         30.0370   31.1500   26.5070 C.2   238  ASP238      0.2266
    103  O         30.7660   30.1250   26.4960 O.2   238  ASP238     -0.2867
    104  CB        30.8760   31.9280   28.7380 C.3   238  ASP238      0.1410
    105  CG        31.9670   32.7910   28.1150 C.2   238  ASP238      0.3668
    106  OD1       31.7810   33.2400   26.9550 O.co2 238  ASP238     -0.2456
    107  OD2       33.0020   33.0260   28.7580 O.co2 238  ASP238     -0.2456
    108  N         31.6060   32.8000   23.9750 N.3   240  VAL240     -0.1231
    109  CA        32.5730   33.6650   23.3160 C.3   240  VAL240      0.1692
    110  C         33.4240   32.8310   22.3380 C.2   240  VAL240      0.2591
    111  O         33.6970   33.2710   21.2210 O.2   240  VAL240     -0.2718
    112  CB        33.4830   34.3460   24.3610 C.3   240  VAL240      0.0266
    113  CG1       34.7930   34.8000   23.7350 C.3   240  VAL240      0.0020
    114  CG2       32.7540   35.5630   24.9450 C.3   240  VAL240      0.0020
    115  N         33.8170   31.6360   22.7630 N.am  241  GLN241     -0.1979
    116  CA        34.6600   30.7850   21.9330 C.3   241  GLN241      0.1601
    117  C         33.9010   29.6290   21.2590 C.2   241  GLN241      0.2287
    118  O         34.2090   29.2570   20.1350 O.2   241  GLN241     -0.2864
    119  CB        35.8260   30.2210   22.7660 C.3   241  GLN241      0.0394
    120  CG        36.9060   29.5260   21.8860 C.3   241  GLN241      0.0908
    121  CD        38.2200   29.2130   22.6240 C.2   241  GLN241      0.2608
    122  OE1       38.9650   28.2520   22.0850 O.2   241  GLN241     -0.2717
    123  NE2       38.5660   29.8370   23.6640 N.am  241  GLN241     -0.0878
    124  N         31.3730   36.7040   20.9900 N.3   266  ALA266     -0.1231
    125  CA        32.4350   37.6320   20.6120 C.3   266  ALA266      0.1694
    126  C         33.2400   36.8760   19.5650 C.2   266  ALA266      0.2591
    127  O         32.6800   36.0980   18.7870 O.2   266  ALA266     -0.2718
    128  CB        33.3130   37.9630   21.8620 C.3   266  ALA266      0.0304
    129  N         34.5520   37.0630   19.5830 N.am  267  LYS267     -0.1980
    130  CA        35.4220   36.3780   18.6370 C.3   267  LYS267      0.1596
    131  C         34.9380   36.2520   17.1790 C.2   267  LYS267      0.2287
    132  O         34.8970   37.2490   16.4400 O.2   267  LYS267     -0.2864
    133  CB        35.7950   34.9880   19.2160 C.3   267  LYS267      0.0298
    134  CG        36.8000   35.0690   20.4420 C.3   267  LYS267      0.0038
    135  CD        37.0560   33.6640   21.0330 C.3   267  LYS267      0.0206
    136  CE        38.0030   33.6590   22.2590 C.3   267  LYS267      0.1093
    137  NZ        39.4390   34.0010   21.9380 N.3   267  LYS267     -0.1314
@<TRIPOS>BOND
     1   132   131    2
     2   131   130    1
     3     1     2    1
     4     3     2    1
     5     3     4    2
     6   130   133    1
     7   130   129    1
     8     2     5    1
     9   127   126    2
    10   133   134    1
    11   126   129   am
    12   126   125    1
    13     5     6    1
    14     5     7    1
    15   118   117    2
    16     6     8    1
    17   134   135    1
    18   125   124    1
    19   125   128    1
    20   135   136    1
    21   111   110    2
    22   117   116    1
    23   120   121    1
    24   120   119    1
    25   116   115    1
    26   116   119    1
    27   137   136    1
    28   122   121    2
    29   110   115   am
    30   110   109    1
    31   121   123   am
    32   109   108    1
    33   109   112    1
    34   113   112    1
    35     9    10    1
    36    10    11    1
    37    10    13    1
    38    15    13    1
    39   112   114    1
    40    99    97   ar
    41    16    11   am
    42    16    17    1
    43    11    12    2
    44    13    14    1
    45    17    18    1
    46    97    98   ar
    47    97    96    1
    48   103   102    2
    49   102   101    1
    50    91    92    1
    51    18    20   am
    52    18    19    2
    53    96    95    1
    54   106   105   ar
    55    92    95    1
    56    92    93    1
    57    20    21    1
    58   101   100    1
    59   101   104    1
    60    93    94    2
    61   105   104    1
    62   105   107   ar
    63    90    88   ar
    64    84    83    1
    65    84    85    2
    66    69    67    1
    67    86    83    1
    68    86    87    1
    69    42    40   ar
    70    42    43   ar
    71    66    67    2
    72    66    65    1
    73    83    82    1
    74    25    24    1
    75    40    38   ar
    76    87    88    1
    77    21    22    1
    78    21    24    1
    79    44    43    1
    80    88    89   ar
    81    67    68    1
    82    43    41   ar
    83    65    64    1
    84    22    23    2
    85    26    27    1
    86    38    37    1
    87    38    39   ar
    88    81    80    1
    89    32    30    1
    90    36    35    2
    91    37    34    1
    92    41    39   ar
    93    64    63    1
    94    79    80   ar
    95    79    77   ar
    96    56    55    1
    97    56    57    1
    98    48    47    2
    99    27    30    1
   100    27    28    1
   101    80    78   ar
   102    35    34    1
   103    35    45   am
   104    47    55   am
   105    47    46    1
   106    63    60    1
   107    30    31    1
   108    46    45    1
   109    46    49    1
   110    59    57   am
   111    59    60    1
   112    34    33    1
   113    52    54   ar
   114    52    50   ar
   115    77    75   ar
   116    57    58    2
   117    28    29    2
   118    54    53   ar
   119    60    61    1
   120    78    76   ar
   121    49    50    1
   122    50    51   ar
   123    75    76   ar
   124    75    74    1
   125    61    62    2
   126    53    51   ar
   127    74    71    1
   128    71    70    1
   129    71    72    1
   130    73    72    2
