@<TRIPOS>MOLECULE
tmp/1sfgA00.pdb
 208 202 0 0 0
SMALL
GASTEIGER

@<TRIPOS>ATOM
      1  N          2.5450   25.2030   11.4210 N.3    34  PHE34      -0.1227
      2  CA         3.5710   25.9980   12.0500 C.3    34  PHE34       0.1736
      3  C          4.1360   25.2200   13.2180 C.2    34  PHE34       0.2595
      4  O          4.9470   25.7320   13.9760 O.2    34  PHE34      -0.2718
      5  CB         3.0490   27.3460   12.5360 C.3    34  PHE34       0.0547
      6  CG         2.6970   28.2980   11.4160 C.ar   34  PHE34      -0.0202
      7  CD1        3.6550   28.6400   10.4750 C.ar   34  PHE34      -0.0042
      8  CD2        1.4450   28.8730   11.3550 C.ar   34  PHE34      -0.0042
      9  CE1        3.3450   29.5140    9.4550 C.ar   34  PHE34      -0.0003
     10  CE2        1.1390   29.7550   10.3380 C.ar   34  PHE34      -0.0003
     11  CZ         2.0890   30.0780    9.3910 C.ar   34  PHE34      -0.0000
     12  N          3.6590   23.9830   13.3880 N.am   35  GLU35      -0.1979
     13  CA         4.1550   23.2010   14.4970 C.3    35  GLU35       0.1602
     14  C          4.9290   21.9750   14.0580 C.2    35  GLU35       0.2287
     15  O          5.9830   21.6500   14.5930 O.2    35  GLU35      -0.2864
     16  CB         2.9860   22.8010   15.3930 C.3    35  GLU35       0.0415
     17  CG         2.4570   24.0540   16.0670 C.3    35  GLU35       0.1163
     18  CD         3.5260   24.6530   16.9460 C.2    35  GLU35       0.3649
     19  OE1        4.1590   23.9000   17.7100 O.co2  35  GLU35      -0.2457
     20  OE2        3.7960   25.8660   16.7840 O.co2  35  GLU35      -0.2457
     21  N         11.9590   17.6010   18.6070 N.3    44  ASN44      -0.1240
     22  CA        13.2630   18.1040   18.9830 C.3    44  ASN44       0.1653
     23  C         13.4720   18.1700   20.4920 C.2    44  ASN44       0.2266
     24  O         12.5370   18.1160   21.2860 O.2    44  ASN44      -0.2867
     25  CB        13.5150   19.4800   18.3640 C.3    44  ASN44       0.1155
     26  CG        13.7740   19.3980   16.8770 C.2    44  ASN44       0.2627
     27  OD1       13.2610   20.2050   16.1040 O.2    44  ASN44      -0.2716
     28  ND2       14.5550   18.4080   16.4740 N.am   44  ASN44      -0.0877
     29  N         15.4930   20.3880   23.6910 N.3    46  ASN46      -0.1240
     30  CA        15.4690   21.8370   23.8410 C.3    46  ASN46       0.1653
     31  C         16.7120   22.3170   24.5330 C.2    46  ASN46       0.2266
     32  O         17.3120   21.5860   25.3260 O.2    46  ASN46      -0.2867
     33  CB        14.2120   22.1980   24.5930 C.3    46  ASN46       0.1155
     34  CG        13.0650   21.7830   23.6950 C.2    46  ASN46       0.2627
     35  OD1       12.2080   21.0050   24.0960 O.2    46  ASN46      -0.2716
     36  ND2       13.1670   22.1680   22.4300 N.am   46  ASN46      -0.0877
     37  N         16.9770   23.9780   26.7810 N.3    48  ASP48      -0.1239
     38  CA        16.5920   23.9390   28.1510 C.3    48  ASP48       0.1674
     39  C         16.7620   22.5060   28.6600 C.2    48  ASP48       0.2266
     40  O         16.6300   22.2290   29.8450 O.2    48  ASP48      -0.2867
     41  CB        15.1110   24.3290   28.1580 C.3    48  ASP48       0.1410
     42  CG        14.9940   25.7680   27.6610 C.2    48  ASP48       0.3668
     43  OD1       15.9970   26.5080   27.7660 O.co2  48  ASP48      -0.2456
     44  OD2       13.9160   26.1350   27.1660 O.co2  48  ASP48      -0.2456
     45  N         14.8760   20.3070   27.7300 N.3    50  SER50      -0.1217
     46  CA        13.5320   19.7850   27.5990 C.3    50  SER50       0.1889
     47  C         13.4260   19.1040   26.2580 C.2    50  SER50       0.2288
     48  O         13.9840   19.5730   25.2810 O.2    50  SER50      -0.2866
     49  CB        12.5330   20.9430   27.6850 C.3    50  SER50       0.2089
     50  OG        13.0710   22.1050   27.0830 O.3    50  SER50      -0.2183
     51  N         10.9100   17.3210   23.1800 N.3    52  ASP52      -0.1239
     52  CA         9.5830   17.5860   22.6470 C.3    52  ASP52       0.1674
     53  C          8.9830   16.2990   22.0890 C.2    52  ASP52       0.2266
     54  O          9.7020   15.3040   21.9210 O.2    52  ASP52      -0.2867
     55  CB         9.6400   18.6740   21.5800 C.3    52  ASP52       0.1410
     56  CG         9.9860   20.0300   22.1570 C.2    52  ASP52       0.3668
     57  OD1        9.7750   20.2440   23.3720 O.co2  52  ASP52      -0.2456
     58  OD2       10.4810   20.8740   21.3890 O.co2  52  ASP52      -0.2456
     59  N          2.3910   17.7870   17.9670 N.3    56  LEU56      -0.1231
     60  CA         1.9590   18.5550   19.0990 C.3    56  LEU56       0.1693
     61  C          3.1740   19.2390   19.7080 C.2    56  LEU56       0.2592
     62  O          3.0750   20.3380   20.2360 O.2    56  LEU56      -0.2718
     63  CB         1.3180   17.6160   20.1280 C.3    56  LEU56       0.0284
     64  CG         0.0690   16.8720   19.6460 C.3    56  LEU56       0.0019
     65  CD1       -0.3170   15.7620   20.6100 C.3    56  LEU56       0.0001
     66  CD2       -1.0860   17.8390   19.4590 C.3    56  LEU56       0.0001
     67  N          4.3230   18.5680   19.6370 N.am   57  GLN57      -0.1966
     68  CA         5.5570   19.1510   20.1430 C.3    57  GLN57       0.1733
     69  C          5.4710   19.6290   21.6000 C.2    57  GLN57       0.2616
     70  O          5.6760   20.8090   21.8930 O.2    57  GLN57      -0.2715
     71  CB         6.0240   20.2790   19.2330 C.3    57  GLN57       0.0408
     72  CG         6.6040   19.8030   17.9110 C.3    57  GLN57       0.0908
     73  CD         7.0600   20.9620   17.0570 C.2    57  GLN57       0.2608
     74  OE1        6.5270   22.0540   17.1630 O.2    57  GLN57      -0.2717
     75  NE2        8.0450   20.7190   16.2110 N.am   57  GLN57      -0.0878
     76  N          5.1480   18.7270   22.5050 N.am   58  ILE58      -0.1963
     77  CA         5.0720   19.0370   23.9410 C.3    58  ILE58       0.1727
     78  C          6.4470   18.8010   24.5800 C.2    58  ILE58       0.2616
     79  O          7.2500   18.0710   24.0130 O.2    58  ILE58      -0.2715
     80  CB         4.0550   18.0910   24.6110 C.3    58  ILE58       0.0290
     81  CG1        2.6170   18.2530   24.1060 C.3    58  ILE58       0.0022
     82  CG2        4.1240   18.2030   26.1280 C.3    58  ILE58       0.0023
     83  CD1        1.7520   17.0240   24.3090 C.3    58  ILE58       0.0001
     84  N          6.7570   19.4030   25.7390 N.am   59  ASN59      -0.1972
     85  CA         8.0730   19.1120   26.3340 C.3    59  ASN59       0.1688
     86  C          7.9570   18.1670   27.5330 C.2    59  ASN59       0.2292
     87  O          7.0500   18.2990   28.3590 O.2    59  ASN59      -0.2864
     88  CB         8.8540   20.3560   26.7320 C.3    59  ASN59       0.1181
     89  CG         8.1750   21.1940   27.7980 C.2    59  ASN59       0.2629
     90  OD1        7.0570   20.9120   28.2160 O.2    59  ASN59      -0.2716
     91  ND2        8.8800   22.2030   28.2940 N.am   59  ASN59      -0.0877
     92  N          7.7510   19.5070   31.5360 N.3    62  TRP62      -0.1227
     93  CA         6.5660   19.8380   32.3010 C.3    62  TRP62       0.1737
     94  C          5.4060   18.8760   32.0720 C.2    62  TRP62       0.2595
     95  O          4.6820   18.5860   33.0190 O.2    62  TRP62      -0.2718
     96  CB         6.1320   21.2990   32.0860 C.3    62  TRP62       0.0564
     97  CG         6.9590   22.3340   32.8210 C.ar   62  TRP62       0.0003
     98  CD1        8.0500   23.0050   32.3390 C.ar   62  TRP62       0.0946
     99  CD2        6.7540   22.8410   34.1550 C.ar   62  TRP62       0.0152
    100  NE1        8.5400   23.8780   33.2880 N.ar   62  TRP62      -0.2442
    101  CE2        7.7660   23.7940   34.4160 C.ar   62  TRP62       0.0810
    102  CE3        5.8250   22.5760   35.1610 C.ar   62  TRP62       0.0012
    103  CZ2        7.8660   24.4800   35.6230 C.ar   62  TRP62       0.0191
    104  CZ3        5.9310   23.2580   36.3620 C.ar   62  TRP62       0.0001
    105  CH2        6.9420   24.1980   36.5840 C.ar   62  TRP62       0.0015
    106  N          5.2070   18.3600   30.8420 N.am   63  TRP63      -0.1976
    107  CA         4.0300   17.5220   30.6170 C.3    63  TRP63       0.1640
    108  C          4.1150   16.0000   30.6330 C.2    63  TRP63       0.2290
    109  O          3.3400   15.4000   31.3890 O.2    63  TRP63      -0.2864
    110  CB         3.2310   18.0130   29.4040 C.3    63  TRP63       0.0576
    111  CG         2.5320   19.3090   29.6920 C.ar   63  TRP63       0.0006
    112  CD1        2.8580   20.5420   29.2110 C.ar   63  TRP63       0.0946
    113  CD2        1.4160   19.5030   30.5790 C.ar   63  TRP63       0.0152
    114  NE1        2.0010   21.4890   29.7230 N.ar   63  TRP63      -0.2442
    115  CE2        1.1050   20.8780   30.5650 C.ar   63  TRP63       0.0810
    116  CE3        0.6460   18.6490   31.3790 C.ar   63  TRP63       0.0012
    117  CZ2        0.0560   21.4150   31.3140 C.ar   63  TRP63       0.0191
    118  CZ3       -0.3980   19.1830   32.1170 C.ar   63  TRP63       0.0001
    119  CH2       -0.6820   20.5520   32.0820 C.ar   63  TRP63       0.0015
    120  N          6.4280   17.2870   36.0220 N.3    73  ARG73      -0.1245
    121  CA         5.1470   17.0360   36.6510 C.3    73  ARG73       0.1563
    122  C          4.3900   15.8590   36.0530 C.2    73  ARG73       0.2260
    123  O          3.9270   14.9940   36.8010 O.2    73  ARG73      -0.2867
    124  CB         4.3110   18.3210   36.7030 C.3    73  ARG73       0.0307
    125  CG         4.9540   19.3930   37.5850 C.3    73  ARG73       0.0489
    126  CD         4.0790   20.6260   37.7290 C.3    73  ARG73       0.2205
    127  NE         4.3400   21.3530   38.9760 N.pl3  73  ARG73      -0.0865
    128  CZ         5.5430   21.6610   39.4550 C.cat  73  ARG73       0.5346
    129  NH1        6.6400   21.1410   38.9120 N.pl3  73  ARG73       0.1354
    130  NH2        5.6540   22.4870   40.4930 N.pl3  73  ARG73       0.1354
    131  N         -4.8310   21.7350   28.4170 N.3    98  ILE98      -0.1245
    132  CA        -3.5500   22.4130   28.6500 C.3    98  ILE98       0.1561
    133  C         -3.8000   23.9080   28.7660 C.2    98  ILE98       0.2260
    134  O         -2.9990   24.6590   29.3180 O.2    98  ILE98      -0.2867
    135  CB        -2.5250   22.1360   27.5320 C.3    98  ILE98       0.0252
    136  CG1       -2.0050   20.6930   27.5060 C.3    98  ILE98       0.0019
    137  CG2       -1.3600   23.1120   27.6470 C.3    98  ILE98       0.0019
    138  CD1       -1.1120   20.3850   26.3270 C.3    98  ILE98       0.0001
    139  N         -5.9000   24.9450   32.2870 N.3   101  ASP101     -0.1225
    140  CA        -5.1230   25.2930   33.4540 C.3   101  ASP101      0.1805
    141  C         -5.1560   26.8090   33.6340 C.2   101  ASP101      0.2598
    142  O         -4.6130   27.3410   34.5930 O.2   101  ASP101     -0.2718
    143  CB        -3.6950   24.7880   33.3340 C.3   101  ASP101      0.1424
    144  CG        -2.9180   25.0300   34.6080 C.2   101  ASP101      0.3668
    145  OD1       -3.5010   25.6180   35.5500 O.co2 101  ASP101     -0.2456
    146  OD2       -1.7490   24.6050   34.6770 O.co2 101  ASP101     -0.2456
    147  N         -5.8190   27.4780   32.6860 N.am  102  GLY102     -0.1942
    148  CA        -5.9980   28.9030   32.6880 C.3   102  GLY102      0.2014
    149  C         -4.9850   29.7770   31.9960 C.2   102  GLY102      0.2638
    150  O         -5.1050   31.0070   32.0500 O.2   102  GLY102     -0.2714
    151  N         -3.9750   29.1960   31.3410 N.am  103  ASN103     -0.1972
    152  CA        -3.0070   30.0530   30.6530 C.3   103  ASN103      0.1688
    153  C         -3.2990   30.2110   29.1750 C.2   103  ASN103      0.2292
    154  O         -2.6190   30.9950   28.5150 O.2   103  ASN103     -0.2864
    155  CB        -1.5530   29.6220   30.8480 C.3   103  ASN103      0.1181
    156  CG        -1.2520   28.2280   30.3540 C.2   103  ASN103      0.2629
    157  OD1       -2.1550   27.4810   29.9730 O.2   103  ASN103     -0.2716
    158  ND2        0.0360   27.9000   30.2810 N.am  103  ASN103     -0.0877
    159  N         -1.1530   30.3450   25.3920 N.3   106  ASN106     -0.1225
    160  CA         0.0600   30.9500   25.9070 C.3   106  ASN106      0.1785
    161  C          1.0880   29.9000   26.2880 C.2   106  ASN106      0.2597
    162  O          2.2370   30.2180   26.5780 O.2   106  ASN106     -0.2718
    163  CB        -0.2680   31.7910   27.1410 C.3   106  ASN106      0.1169
    164  CG         0.9420   32.5160   27.6790 C.2   106  ASN106      0.2627
    165  OD1        1.9090   32.7450   26.9570 O.2   106  ASN106     -0.2716
    166  ND2        0.8970   32.8610   28.9620 N.am  106  ASN106     -0.0877
    167  N          0.6670   28.6500   26.3270 N.am  107  ALA107     -0.1966
    168  CA         1.6090   27.5760   26.6000 C.3   107  ALA107      0.1728
    169  C          2.3040   27.2700   25.2820 C.2   107  ALA107      0.2616
    170  O          3.4630   26.8930   25.2350 O.2   107  ALA107     -0.2715
    171  CB         0.8950   26.3520   27.1330 C.3   107  ALA107      0.0334
    172  N          1.5560   27.4570   24.2050 N.am  108  TRP108     -0.1960
    173  CA         2.0980   27.2650   22.8660 C.3   108  TRP108      0.1771
    174  C          2.7550   28.5840   22.5080 C.2   108  TRP108      0.2620
    175  O          2.2520   29.6350   22.9200 O.2   108  TRP108     -0.2715
    176  CB         0.9620   26.9380   21.8930 C.3   108  TRP108      0.0590
    177  CG         0.5100   25.5150   22.0310 C.ar  108  TRP108      0.0006
    178  CD1        0.8890   24.4350   21.2940 C.ar  108  TRP108      0.0946
    179  CD2       -0.3500   25.0210   23.0590 C.ar  108  TRP108      0.0152
    180  NE1        0.2770   23.3030   21.7710 N.ar  108  TRP108     -0.2442
    181  CE2       -0.4840   23.6370   22.8600 C.ar  108  TRP108      0.0810
    182  CE3       -1.0290   25.6250   24.1210 C.ar  108  TRP108      0.0012
    183  CZ2       -1.2760   22.8420   23.6860 C.ar  108  TRP108      0.0191
    184  CZ3       -1.8170   24.8350   24.9380 C.ar  108  TRP108      0.0001
    185  CH2       -1.9360   23.4580   24.7150 C.ar  108  TRP108      0.0015
    186  N          3.8710   28.5560   21.7950 N.am  109  VAL109     -0.1963
    187  CA         4.5560   29.8060   21.4910 C.3   109  VAL109      0.1727
    188  C          4.3950   30.3180   20.0610 C.2   109  VAL109      0.2616
    189  O          4.1530   31.5120   19.8640 O.2   109  VAL109     -0.2715
    190  CB         6.0460   29.7280   21.8650 C.3   109  VAL109      0.0290
    191  CG1        6.8470   30.7750   21.1140 C.3   109  VAL109      0.0023
    192  CG2        6.2150   29.8820   23.3680 C.3   109  VAL109      0.0023
    193  N          4.4970   29.4550   19.0550 N.am  110  ALA110     -0.1977
    194  CA         4.4140   29.9390   17.6710 C.3   110  ALA110      0.1597
    195  C          3.0870   30.6400   17.3960 C.2   110  ALA110      0.2287
    196  O          3.0470   31.7130   16.7820 O.2   110  ALA110     -0.2864
    197  CB         4.6170   28.7900   16.6950 C.3   110  ALA110      0.0319
    198  N          1.3360   32.5360   18.9930 N.3   112  ARG112     -0.1245
    199  CA         1.1870   33.9210   19.4110 C.3   112  ARG112      0.1563
    200  C          1.8600   34.8400   18.4100 C.2   112  ARG112      0.2260
    201  O          1.5790   36.0410   18.3690 O.2   112  ARG112     -0.2867
    202  CB         1.6890   34.1580   20.8300 C.3   112  ARG112      0.0307
    203  CG         1.6770   35.6270   21.2360 C.3   112  ARG112      0.0489
    204  CD         1.8660   35.7980   22.7320 C.3   112  ARG112      0.2205
    205  NE         3.0450   35.1160   23.2560 N.pl3 112  ARG112     -0.0865
    206  CZ         3.0090   34.3160   24.3180 C.cat 112  ARG112      0.5346
    207  NH1        2.2820   34.6510   25.3770 N.pl3 112  ARG112      0.1354
    208  NH2        3.6690   33.1690   24.3110 N.pl3 112  ARG112      0.1354
@<TRIPOS>BOND
     1    11     9   ar
     2    11    10   ar
     3     9     7   ar
     4    10     8   ar
     5     7     6   ar
     6     8     6   ar
     7     6     5    1
     8     1     2    1
     9     2     5    1
    10     2     3    1
    11     3    12   am
    12     3     4    2
    13    12    13    1
    14    14    13    1
    15    14    15    2
    16    13    16    1
    17    16    17    1
    18    17    18    1
    19    27    26    2
    20    75    73   am
    21    28    26   am
    22   197   194    1
    23   196   195    2
    24    20    18   ar
    25    26    25    1
    26    18    19   ar
    27    73    74    2
    28    73    72    1
    29   195   194    1
    30   194   193    1
    31    72    71    1
    32    59    60    1
    33    25    22    1
    34   201   200    2
    35   200   199    1
    36    21    22    1
    37    22    23    1
    38   198   199    1
    39   193   188   am
    40    60    61    1
    41    60    63    1
    42    71    68    1
    43   199   202    1
    44    66    64    1
    45    67    61   am
    46    67    68    1
    47    64    63    1
    48    64    65    1
    49    61    62    2
    50   189   188    2
    51   188   187    1
    52    68    69    1
    53    23    24    2
    54   202   203    1
    55   191   190    1
    56   203   204    1
    57   178   180   ar
    58   178   177   ar
    59    58    56   ar
    60   187   186    1
    61   187   190    1
    62    55    56    1
    63    55    52    1
    64    69    70    2
    65    69    76   am
    66   180   181   ar
    67   186   174   am
    68   190   192    1
    69   176   177    1
    70   176   173    1
    71    54    53    2
    72   177   179   ar
    73    53    52    1
    74    56    57   ar
    75    36    34   am
    76    76    77    1
    77   174   173    1
    78   174   175    2
    79    52    51    1
    80   204   205    1
    81   181   179   ar
    82   181   183   ar
    83   173   172    1
    84   179   182   ar
    85   205   206    2
    86   183   185   ar
    87    29    30    1
    88    34    35    2
    89    34    33    1
    90    30    31    1
    91    30    33    1
    92    77    78    1
    93    77    80    1
    94    79    78    2
    95    81    83    1
    96    81    80    1
    97   182   184   ar
    98   172   169   am
    99   208   206    1
   100   206   207    1
   101    31    32    2
   102    78    84   am
   103    80    82    1
   104   185   184   ar
   105   170   169    2
   106    48    47    2
   107   169   168    1
   108   159   160    1
   109    84    85    1
   110   160   161    1
   111   160   163    1
   112    47    46    1
   113   161   167   am
   114   161   162    2
   115   138   136    1
   116   167   168    1
   117    85    88    1
   118    85    86    1
   119   168   171    1
   120    88    89    1
   121    37    38    1
   122   165   164    2
   123    50    49    1
   124   163   164    1
   125    44    42   ar
   126   136   135    1
   127   135   137    1
   128   135   132    1
   129    86    87    2
   130    46    49    1
   131    46    45    1
   132    42    43   ar
   133    42    41    1
   134   164   166   am
   135    89    90    2
   136    89    91   am
   137    38    41    1
   138    38    39    1
   139   131   132    1
   140   154   153    2
   141   132   133    1
   142    39    40    2
   143   133   134    2
   144   153   152    1
   145   112   111   ar
   146   112   114   ar
   147   110   111    1
   148   110   107    1
   149   111   113   ar
   150   114   115   ar
   151   157   156    2
   152   158   156   am
   153   156   155    1
   154   115   113   ar
   155   115   117   ar
   156   113   116   ar
   157   107   108    1
   158   107   106    1
   159   108   109    2
   160   152   155    1
   161   152   151    1
   162   106    94   am
   163   117   119   ar
   164   151   149   am
   165   116   118   ar
   166    92    93    1
   167   149   150    2
   168   149   148    1
   169    94    93    1
   170    94    95    2
   171   119   118   ar
   172    96    93    1
   173    96    97    1
   174   139   140    1
   175    98    97   ar
   176    98   100   ar
   177   147   148    1
   178   147   141   am
   179    97    99   ar
   180   100   101   ar
   181   143   140    1
   182   143   144    1
   183   140   141    1
   184   141   142    2
   185    99   101   ar
   186    99   102   ar
   187   101   103   ar
   188   144   146   ar
   189   144   145   ar
   190   102   104   ar
   191   103   105   ar
   192   120   121    1
   193   122   121    1
   194   122   123    2
   195   104   105   ar
   196   121   124    1
   197   124   125    1
   198   125   126    1
   199   126   127    1
   200   129   128    1
   201   127   128    2
   202   128   130    1
