@<TRIPOS>MOLECULE
tmp/1sfjB00.pdb
 150 137 0 0 0
SMALL
GASTEIGER

@<TRIPOS>ATOM
      1  N         95.0030   17.8390 -116.7730 N.3     9  THR9       -0.1218
      2  CA        95.2660   19.1820 -116.2690 C.3     9  THR9        0.1862
      3  C         95.9810   20.0570 -117.2950 C.2     9  THR9        0.2287
      4  O         97.0400   19.6860 -117.7980 O.2     9  THR9       -0.2866
      5  CB        96.1580   19.1360 -115.0180 C.3     9  THR9        0.1770
      6  OG1       95.5160   18.3620 -114.0020 O.3     9  THR9       -0.2211
      7  CG2       96.4290   20.5420 -114.4960 C.3     9  THR9        0.0375
      8  N         90.7020   19.4700 -116.7200 N.3    33  GLU33      -0.1245
      9  CA        90.8920   20.3970 -115.6140 C.3    33  GLU33       0.1567
     10  C         91.5750   21.6640 -116.0850 C.2    33  GLU33       0.2260
     11  O         92.7800   21.6810 -116.3240 O.2    33  GLU33      -0.2867
     12  CB        91.7250   19.7920 -114.4710 C.3    33  GLU33       0.0388
     13  CG        92.0200   20.8480 -113.3840 C.3    33  GLU33       0.1160
     14  CD        92.8880   20.3610 -112.2320 C.2    33  GLU33       0.3649
     15  OE1       93.9730   19.7890 -112.4720 O.co2  33  GLU33      -0.2457
     16  OE2       92.4860   20.5740 -111.0710 O.co2  33  GLU33      -0.2457
     17  N         93.1190   24.7660 -115.1870 N.3    35  ARG35      -0.1245
     18  CA        93.6710   25.5370 -114.0860 C.3    35  ARG35       0.1563
     19  C         93.6030   26.9670 -114.5930 C.2    35  ARG35       0.2260
     20  O         93.6570   27.1880 -115.8030 O.2    35  ARG35      -0.2867
     21  CB        95.1200   25.1320 -113.8300 C.3    35  ARG35       0.0307
     22  CG        95.2670   23.7970 -113.1250 C.3    35  ARG35       0.0489
     23  CD        95.0700   23.9870 -111.6440 C.3    35  ARG35       0.2205
     24  NE        96.1650   24.7700 -111.0890 N.pl3  35  ARG35      -0.0865
     25  CZ        97.2920   24.2420 -110.6270 C.cat  35  ARG35       0.5346
     26  NH1       97.4610   22.9240 -110.6460 N.pl3  35  ARG35       0.1354
     27  NH2       98.2560   25.0310 -110.1660 N.pl3  35  ARG35       0.1354
     28  N         89.7810   25.1600 -111.9860 N.3    63  THR63      -0.1218
     29  CA        90.5170   25.1900 -110.7380 C.3    63  THR63       0.1862
     30  C         91.4690   26.3530 -110.5710 C.2    63  THR63       0.2287
     31  O         92.3850   26.5390 -111.3690 O.2    63  THR63      -0.2866
     32  CB        91.3460   23.8950 -110.5500 C.3    63  THR63       0.1770
     33  OG1       90.4730   22.7570 -110.5330 O.3    63  THR63      -0.2211
     34  CG2       92.1410   23.9530 -109.2480 C.3    63  THR63       0.0375
     35  N         94.1760   27.4190 -108.2110 N.3    65  ARG65      -0.1245
     36  CA        95.0390   26.9590 -107.1330 C.3    65  ARG65       0.1563
     37  C         95.8460   28.1230 -106.5910 C.2    65  ARG65       0.2260
     38  O         96.6640   28.7130 -107.3080 O.2    65  ARG65      -0.2867
     39  CB        95.9930   25.8730 -107.6320 C.3    65  ARG65       0.0307
     40  CG        96.8070   25.2280 -106.5270 C.3    65  ARG65       0.0489
     41  CD        95.9000   24.5790 -105.4920 C.3    65  ARG65       0.2205
     42  NE        95.2290   23.3920 -106.0170 N.pl3  65  ARG65      -0.0865
     43  CZ        93.9110   23.2140 -106.0460 C.cat  65  ARG65       0.5346
     44  NH1       93.0920   24.1510 -105.5850 N.pl3  65  ARG65       0.1354
     45  NH2       93.4120   22.0830 -106.5220 N.pl3  65  ARG65       0.1354
     46  N         86.6850   23.6810 -108.1560 N.3    97  ASP97      -0.1239
     47  CA        87.5930   23.3070 -107.0780 C.3    97  ASP97       0.1674
     48  C         87.6980   24.4130 -106.0220 C.2    97  ASP97       0.2266
     49  O         88.0530   25.5480 -106.3420 O.2    97  ASP97      -0.2867
     50  CB        88.9840   23.0110 -107.6540 C.3    97  ASP97       0.1410
     51  CG        89.9470   22.4410 -106.6170 C.2    97  ASP97       0.3668
     52  OD1       90.1190   23.0590 -105.5450 O.co2  97  ASP97      -0.2456
     53  OD2       90.5450   21.3770 -106.8800 O.co2  97  ASP97      -0.2456
     54  N         96.1030   20.4010 -100.1080 N.3   128  HIS128     -0.1241
     55  CA        97.4340   20.0100 -100.5550 C.3   128  HIS128      0.1621
     56  C         98.4920   20.2600  -99.5050 C.2   128  HIS128      0.2264
     57  O         98.4710   21.2770  -98.8200 O.2   128  HIS128     -0.2867
     58  CB        97.8380   20.7790 -101.8150 C.3   128  HIS128      0.0745
     59  CG        97.0040   20.4650 -103.0120 C.ar  128  HIS128      0.0817
     60  ND1       95.6910   20.8670 -103.1310 N.ar  128  HIS128     -0.2268
     61  CD2       97.2960   19.7850 -104.1460 C.ar  128  HIS128      0.1154
     62  CE1       95.2110   20.4490 -104.2880 C.ar  128  HIS128      0.1986
     63  NE2       96.1640   19.7900 -104.9240 N.ar  128  HIS128     -0.2212
     64  N        102.5520   19.8830  -99.7260 N.3   130  PHE130     -0.1241
     65  CA       103.7550   19.5440 -100.4870 C.3   130  PHE130      0.1605
     66  C        104.9570   19.2980  -99.5970 C.2   130  PHE130      0.2264
     67  O        106.0130   18.8840 -100.0720 O.2   130  PHE130     -0.2867
     68  CB       104.1050   20.6620 -101.4750 C.3   130  PHE130      0.0534
     69  CG       103.1430   20.7840 -102.6120 C.ar  130  PHE130     -0.0203
     70  CD1      101.8900   21.3480 -102.4220 C.ar  130  PHE130     -0.0042
     71  CD2      103.4830   20.3060 -103.8750 C.ar  130  PHE130     -0.0042
     72  CE1      100.9810   21.4330 -103.4740 C.ar  130  PHE130     -0.0003
     73  CE2      102.5840   20.3830 -104.9360 C.ar  130  PHE130     -0.0003
     74  CZ       101.3270   20.9490 -104.7350 C.ar  130  PHE130     -0.0000
     75  N         89.2850   15.8300 -101.9760 N.3   155  LYS155     -0.1245
     76  CA        90.5800   15.5540 -102.5730 C.3   155  LYS155      0.1561
     77  C         91.7050   15.9640 -101.6300 C.2   155  LYS155      0.2260
     78  O         91.7350   17.0930 -101.1340 O.2   155  LYS155     -0.2867
     79  CB        90.6940   16.3070 -103.9010 C.3   155  LYS155      0.0271
     80  CG        92.0960   16.3930 -104.4710 C.3   155  LYS155      0.0035
     81  CD        92.1020   17.2900 -105.6910 C.3   155  LYS155      0.0206
     82  CE        93.5050   17.5520 -106.1990 C.3   155  LYS155      0.1093
     83  NZ        93.4540   18.4650 -107.3320 N.3   155  LYS155     -0.1314
     84  N         95.9770   15.7440 -101.3510 N.3   157  ALA157     -0.1245
     85  CA        97.2710   15.4490 -101.9520 C.3   157  ALA157      0.1562
     86  C         98.3430   15.7510 -100.9070 C.2   157  ALA157      0.2260
     87  O         98.3760   16.8420 -100.3430 O.2   157  ALA157     -0.2867
     88  CB        97.4860   16.3080 -103.2100 C.3   157  ALA157      0.0290
     89  N         95.8280   11.4380 -103.2990 N.3   187  ILE187     -0.1245
     90  CA        97.0580   11.5350 -104.0510 C.3   187  ILE187      0.1561
     91  C         98.3060   11.6610 -103.1860 C.2   187  ILE187      0.2260
     92  O         98.4040   12.5440 -102.3380 O.2   187  ILE187     -0.2867
     93  CB        97.0610   12.7520 -105.0100 C.3   187  ILE187      0.0252
     94  CG1       95.7960   12.7780 -105.8730 C.3   187  ILE187      0.0019
     95  CG2       98.2780   12.6650 -105.9300 C.3   187  ILE187      0.0019
     96  CD1       95.7050   14.0320 -106.7570 C.3   187  ILE187      0.0001
     97  N        101.9770   12.4330 -103.7850 N.3   189  MET189     -0.1245
     98  CA       102.8060   13.0140 -104.8380 C.3   189  MET189      0.1570
     99  C        104.2040   12.4460 -105.0170 C.2   189  MET189      0.2261
    100  O        104.6750   11.6540 -104.2020 O.2   189  MET189     -0.2867
    101  CB       102.8970   14.5320 -104.6430 C.3   189  MET189      0.0387
    102  CG       101.5450   15.2190 -104.6690 C.3   189  MET189      0.0595
    103  SD       101.6730   16.9890 -104.4320 S.3   189  MET189     -0.1393
    104  CE       101.8330   17.0750 -102.6410 C.3   189  MET189      0.0692
    105  N         98.3260    7.1620 -107.9220 N.3   197  ARG197     -0.1245
    106  CA        97.7120    7.7120 -109.1250 C.3   197  ARG197      0.1563
    107  C         97.2340    6.6680 -110.1250 C.2   197  ARG197      0.2260
    108  O         96.1990    6.8420 -110.7610 O.2   197  ARG197     -0.2867
    109  CB        98.6910    8.6410 -109.8330 C.3   197  ARG197      0.0307
    110  CG        99.1200    9.8480 -109.0390 C.3   197  ARG197      0.0489
    111  CD       100.1290   10.6280 -109.8550 C.3   197  ARG197      0.2205
    112  NE       100.5500   11.8790 -109.2350 N.pl3 197  ARG197     -0.0865
    113  CZ        99.7800   12.9510 -109.1090 C.cat 197  ARG197      0.5346
    114  NH1       98.5300   12.9350 -109.5520 N.pl3 197  ARG197      0.1354
    115  NH2      100.2780   14.0570 -108.5730 N.pl3 197  ARG197      0.1354
    116  N         94.6870   12.4300 -111.6940 N.3   209  TYR209     -0.1241
    117  CA        95.1520   13.5130 -112.5430 C.3   209  TYR209      0.1605
    118  C         96.4050   13.2390 -113.3650 C.2   209  TYR209      0.2264
    119  O         97.3860   12.6890 -112.8700 O.2   209  TYR209     -0.2867
    120  CB        95.3850   14.7620 -111.6910 C.3   209  TYR209      0.0534
    121  CG        94.1560   15.3000 -110.9820 C.ar  209  TYR209     -0.0201
    122  CD1       93.4680   14.5330 -110.0350 C.ar  209  TYR209     -0.0009
    123  CD2       93.6900   16.5880 -111.2500 C.ar  209  TYR209     -0.0009
    124  CE1       92.3440   15.0440 -109.3740 C.ar  209  TYR209      0.0417
    125  CE2       92.5740   17.1050 -110.6000 C.ar  209  TYR209      0.0417
    126  CZ        91.9060   16.3330 -109.6670 C.ar  209  TYR209      0.1957
    127  OH        90.7930   16.8580 -109.0570 O.3   209  TYR209     -0.2866
    128  N        101.8890   18.6830 -114.5910 N.3   216  GLN216     -0.1231
    129  CA       101.3510   19.8860 -113.9590 C.3   216  GLN216      0.1698
    130  C        101.4870   19.8150 -112.4420 C.2   216  GLN216      0.2592
    131  O        101.1310   20.7570 -111.7240 O.2   216  GLN216     -0.2718
    132  CB        99.8750   20.0710 -114.3230 C.3   216  GLN216      0.0381
    133  CG        99.6460   20.3690 -115.7820 C.3   216  GLN216      0.0905
    134  CD       100.4970   21.5200 -116.2560 C.2   216  GLN216      0.2608
    135  OE1      100.4680   22.6040 -115.6770 O.2   216  GLN216     -0.2717
    136  NE2      101.2690   21.2910 -117.3140 N.am  216  GLN216     -0.0878
    137  N        101.9940   18.6870 -111.9600 N.am  217  ALA217     -0.1980
    138  CA       102.1890   18.4900 -110.5340 C.3   217  ALA217      0.1597
    139  C        103.1760   17.3430 -110.3520 C.2   217  ALA217      0.2287
    140  O        103.3120   16.4950 -111.2320 O.2   217  ALA217     -0.2864
    141  CB       100.8510   18.1630 -109.8630 C.3   217  ALA217      0.0319
    142  N        102.6580   13.4230 -111.9030 N.3   220  GLN220     -0.1245
    143  CA       101.7960   13.2020 -113.0580 C.3   220  GLN220      0.1566
    144  C        102.5210   12.6000 -114.2580 C.2   220  GLN220      0.2260
    145  O        103.7330   12.7820 -114.4360 O.2   220  GLN220     -0.2867
    146  CB       101.1280   14.5050 -113.5060 C.3   220  GLN220      0.0367
    147  CG       100.1920   15.1440 -112.4960 C.3   220  GLN220      0.0905
    148  CD        99.2660   16.1660 -113.1380 C.2   220  GLN220      0.2608
    149  OE1       99.5990   16.7730 -114.1590 O.2   220  GLN220     -0.2717
    150  NE2       98.1020   16.3700 -112.5340 N.am  220  GLN220     -0.0878
@<TRIPOS>BOND
     1     4     3    2
     2   136   134   am
     3     3     2    1
     4     1     2    1
     5     8     9    1
     6    11    10    2
     7     2     5    1
     8   134   133    1
     9   134   135    2
    10    10     9    1
    11    20    19    2
    12   133   132    1
    13     9    12    1
    14    17    18    1
    15     5     7    1
    16     5     6    1
    17    19    18    1
    18   128   129    1
    19    12    13    1
    20   145   144    2
    21   132   129    1
    22   144   143    1
    23   149   148    2
    24    18    21    1
    25   129   130    1
    26    21    22    1
    27   146   143    1
    28   146   147    1
    29    13    14    1
    30   118   119    2
    31   118   117    1
    32   148   150   am
    33   148   147    1
    34    22    23    1
    35   143   142    1
    36   117   116    1
    37   117   120    1
    38    15    14   ar
    39   130   137   am
    40   130   131    2
    41    14    16   ar
    42    28    29    1
    43   137   138    1
    44   120   121    1
    45    23    24    1
    46    31    30    2
    47   123   121   ar
    48   123   125   ar
    49   140   139    2
    50    24    25    2
    51   121   122   ar
    52   108   107    2
    53    29    30    1
    54    29    32    1
    55    26    25    1
    56    25    27    1
    57   125   126   ar
    58    32    33    1
    59    32    34    1
    60   138   139    1
    61   138   141    1
    62   107   106    1
    63   122   124   ar
    64   111   112    1
    65   111   110    1
    66   109   106    1
    67   109   110    1
    68   126   124   ar
    69   126   127    1
    70   114   113    1
    71   112   113    2
    72   106   105    1
    73   113   115    1
    74    35    36    1
    75    46    47    1
    76    50    47    1
    77    50    51    1
    78    39    36    1
    79    39    40    1
    80    83    82    1
    81    38    37    2
    82    36    37    1
    83    47    48    1
    84    53    51   ar
    85    96    94    1
    86    51    52   ar
    87    40    41    1
    88    45    43    1
    89    49    48    2
    90    82    81    1
    91    43    42    2
    92    43    44    1
    93    42    41    1
    94    95    93    1
    95    94    93    1
    96    81    80    1
    97    99    98    1
    98    99   100    2
    99    93    90    1
   100    73    74   ar
   101    73    71   ar
   102    63    62   ar
   103    63    61   ar
   104    98   101    1
   105    98    97    1
   106    74    72   ar
   107   102   101    1
   108   102   103    1
   109    80    79    1
   110   103   104    1
   111    62    60   ar
   112    61    59   ar
   113    90    89    1
   114    90    91    1
   115    79    76    1
   116    71    69   ar
   117    72    70   ar
   118    88    85    1
   119    91    92    2
   120    60    59   ar
   121    59    58    1
   122    69    70   ar
   123    69    68    1
   124    76    75    1
   125    76    77    1
   126    85    84    1
   127    85    86    1
   128    58    55    1
   129    77    78    2
   130    68    65    1
   131    86    87    2
   132    55    54    1
   133    55    56    1
   134    65    64    1
   135    65    66    1
   136    67    66    2
   137    56    57    2
