@<TRIPOS>MOLECULE
tmp/1sftA00.pdb
 134 126 0 0 0
SMALL
GASTEIGER

@<TRIPOS>ATOM
      1  N         17.1960   12.1150   73.1920 N.3    36  VAL36      -0.1245
      2  CA        18.4040   12.7630   73.6850 C.3    36  VAL36       0.1561
      3  C         18.1210   14.2140   74.0150 C.2    36  VAL36       0.2260
      4  O         17.5580   15.0540   73.3300 O.2    36  VAL36      -0.2867
      5  CB        19.5830   12.5030   72.7770 C.3    36  VAL36       0.0252
      6  CG1       19.1500   11.7100   71.5720 C.3    36  VAL36       0.0019
      7  CG2       20.3530   13.7550   72.4930 C.3    36  VAL36       0.0019
      8  N         20.3570   16.2500   75.8090 N.3    38  LYS38      -0.1245
      9  CA        21.5730   17.0330   76.0550 C.3    38  LYS38       0.1561
     10  C         21.3270   18.5080   75.8780 C.2    38  LYS38       0.2260
     11  O         20.3260   18.9020   75.3140 O.2    38  LYS38      -0.2867
     12  CB        22.7200   16.5630   75.1230 C.3    38  LYS38       0.0271
     13  CG        22.8850   16.8540   73.6030 C.3    38  LYS38       0.0035
     14  CD        23.5530   15.6300   72.9200 C.3    38  LYS38       0.0206
     15  CE        24.1720   15.4850   71.4320 C.3    38  LYS38       0.1093
     16  NZ        23.3310   15.5780   70.3890 N.3    38  LYS38      -0.1314
     17  N         18.1900   20.4900   74.3750 N.3    42  TYR42      -0.1241
     18  CA        18.3990   21.4400   73.2650 C.3    42  TYR42       0.1605
     19  C         17.7870   22.7890   73.5770 C.2    42  TYR42       0.2264
     20  O         17.0930   23.3670   72.7440 O.2    42  TYR42      -0.2867
     21  CB        17.8080   20.9120   71.9090 C.3    42  TYR42       0.0534
     22  CG        18.4460   19.6610   71.3220 C.ar   42  TYR42      -0.0201
     23  CD1       19.0350   18.6960   72.1290 C.ar   42  TYR42      -0.0009
     24  CD2       18.4610   19.4720   69.9580 C.ar   42  TYR42      -0.0009
     25  CE1       19.6230   17.5190   71.5960 C.ar   42  TYR42       0.0417
     26  CE2       19.0430   18.3110   69.4050 C.ar   42  TYR42       0.0417
     27  CZ        19.5970   17.3640   70.2310 C.ar   42  TYR42       0.1957
     28  OH        20.2130   16.2890   69.7250 O.3    42  TYR42      -0.2866
     29  N         26.7220   10.2200   76.2350 N.3    84  LEU84      -0.1245
     30  CA        27.2720   10.0690   74.8810 C.3    84  LEU84       0.1561
     31  C         28.7310   10.4440   74.6710 C.2    84  LEU84       0.2260
     32  O         29.4250    9.9370   73.8060 O.2    84  LEU84      -0.2867
     33  CB        26.4350   10.8890   73.9190 C.3    84  LEU84       0.0270
     34  CG        25.0050   10.4140   73.7310 C.3    84  LEU84       0.0019
     35  CD1       24.3160   11.4970   72.9570 C.3    84  LEU84       0.0001
     36  CD2       24.9050    9.0370   73.0730 C.3    84  LEU84       0.0001
     37  N         31.8220    2.9750   71.5470 N.3   128  LYS128     -0.1245
     38  CA        31.6740    3.8550   70.3970 C.3   128  LYS128      0.1561
     39  C         32.6430    3.4670   69.2440 C.2   128  LYS128      0.2260
     40  O         33.8300    3.1900   69.4300 O.2   128  LYS128     -0.2867
     41  CB        31.9080    5.2380   70.9540 C.3   128  LYS128      0.0271
     42  CG        31.8480    6.4240   70.0310 C.3   128  LYS128      0.0035
     43  CD        30.4220    6.6140   69.6630 C.3   128  LYS128      0.0206
     44  CE        30.2500    7.1000   68.2420 C.3   128  LYS128      0.1093
     45  NZ        30.7080    8.4600   68.0860 N.3   128  LYS128     -0.1314
     46  N         34.9970   11.9900   65.2850 N.3   135  ARG135     -0.1245
     47  CA        34.8820   12.6370   66.5740 C.3   135  ARG135      0.1563
     48  C         35.4180   11.7420   67.7100 C.2   135  ARG135      0.2260
     49  O         36.5580   11.8920   68.1720 O.2   135  ARG135     -0.2867
     50  CB        33.3950   13.0030   66.6300 C.3   135  ARG135      0.0307
     51  CG        33.0020   13.8760   67.8120 C.3   135  ARG135      0.0489
     52  CD        31.6320   14.4730   67.6900 C.3   135  ARG135      0.2205
     53  NE        30.5790   13.4890   67.8270 N.pl3 135  ARG135     -0.0865
     54  CZ        29.2960   13.8510   68.0100 C.cat 135  ARG135      0.5346
     55  NH1       28.8700   15.1300   68.0870 N.pl3 135  ARG135      0.1354
     56  NH2       28.3640   12.9080   68.0590 N.pl3 135  ARG135      0.1354
     57  N         27.7990    1.4260   69.3710 N.3   163  TYR163     -0.1241
     58  CA        27.2110    2.3700   68.4720 C.3   163  TYR163      0.1605
     59  C         28.1770    3.1110   67.6420 C.2   163  TYR163      0.2264
     60  O         29.3790    3.1260   67.8860 O.2   163  TYR163     -0.2867
     61  CB        26.3420    3.4130   69.2060 C.3   163  TYR163      0.0534
     62  CG        26.9350    4.4700   70.1050 C.ar  163  TYR163     -0.0201
     63  CD1       27.5910    4.1470   71.3130 C.ar  163  TYR163     -0.0009
     64  CD2       26.6840    5.8100   69.7780 C.ar  163  TYR163     -0.0009
     65  CE1       28.0110    5.1870   72.1910 C.ar  163  TYR163      0.0417
     66  CE2       27.1020    6.8400   70.6550 C.ar  163  TYR163      0.0417
     67  CZ        27.7700    6.5190   71.8360 C.ar  163  TYR163      0.1957
     68  OH        28.1710    7.5520   72.6540 O.3   163  TYR163     -0.2866
     69  N         27.8340    6.8350   64.8010 N.3   165  HIS165     -0.1241
     70  CA        27.0730    8.0120   64.4890 C.3   165  HIS165      0.1621
     71  C         27.4840    8.4340   63.1240 C.2   165  HIS165      0.2264
     72  O         28.6630    8.4870   62.7840 O.2   165  HIS165     -0.2867
     73  CB        27.3990    9.1250   65.4860 C.3   165  HIS165      0.0745
     74  CG        26.4370   10.2900   65.5760 C.ar  165  HIS165      0.0817
     75  ND1       25.1510   10.2610   65.8720 N.ar  165  HIS165     -0.2268
     76  CD2       26.7660   11.5850   65.3040 C.ar  165  HIS165      0.1154
     77  CE1       24.6840   11.4860   65.7900 C.ar  165  HIS165      0.1986
     78  NE2       25.6600   12.2700   65.4280 N.ar  165  HIS165     -0.2212
     79  N         20.4060    8.5560   64.3240 N.3   202  ASN202     -0.1225
     80  CA        19.9780    9.8220   64.8910 C.3   202  ASN202      0.1785
     81  C         18.5340   10.0730   64.4180 C.2   202  ASN202      0.2597
     82  O         17.8670    9.1430   63.9550 O.2   202  ASN202     -0.2718
     83  CB        20.9680   10.9290   64.4180 C.3   202  ASN202      0.1169
     84  CG        21.2520   11.1430   62.9290 C.2   202  ASN202      0.2627
     85  OD1       20.7320   10.4720   62.0310 O.2   202  ASN202     -0.2716
     86  ND2       22.1210   12.1140   62.6620 N.am  202  ASN202     -0.0877
     87  N         17.9900   11.2870   64.4840 N.am  203  SER203     -0.1952
     88  CA        16.6700   11.5690   63.9500 C.3   203  SER203      0.1924
     89  C         16.5690   11.3140   62.4280 C.2   203  SER203      0.2314
     90  O         15.6890   10.5740   61.9910 O.2   203  SER203     -0.2863
     91  CB        16.3090   12.9980   64.1690 C.3   203  SER203      0.2116
     92  OG        16.3480   13.3410   65.5320 O.3   203  SER203     -0.2180
     93  N         18.4730    7.0130   68.6390 N.3   218  ARG218     -0.1245
     94  CA        18.8060    8.1050   69.5240 C.3   218  ARG218      0.1563
     95  C         18.2150    9.2940   68.8500 C.2   218  ARG218      0.2260
     96  O         18.7950    9.9200   67.9790 O.2   218  ARG218     -0.2867
     97  CB        20.3360    8.2580   69.6770 C.3   218  ARG218      0.0307
     98  CG        21.0790    7.0270   70.1950 C.3   218  ARG218      0.0489
     99  CD        22.5630    7.3640   70.4440 C.3   218  ARG218      0.2205
    100  NE        23.2540    7.9010   69.2790 N.pl3 218  ARG218     -0.0865
    101  CZ        23.7420    7.1940   68.2450 C.cat 218  ARG218      0.5346
    102  NH1       23.6410    5.8770   68.1330 N.pl3 218  ARG218      0.1354
    103  NH2       24.2660    7.8430   67.2220 N.pl3 218  ARG218      0.1354
    104  N         16.9070   12.9900   68.5690 N.3   220  GLY220     -0.1210
    105  CA        17.1370   14.3150   69.0920 C.3   220  GLY220      0.1956
    106  C         16.2890   15.4130   68.5000 C.2   220  GLY220      0.2611
    107  O         15.1140   15.5570   68.8530 O.2   220  GLY220     -0.2717
    108  N         16.8760   16.1450   67.5620 N.am  221  ILE221     -0.1979
    109  CA        16.2850   17.3430   66.9510 C.3   221  ILE221      0.1595
    110  C         14.8700   17.1420   66.4700 C.2   221  ILE221      0.2287
    111  O         14.0890   18.0230   66.7440 O.2   221  ILE221     -0.2864
    112  CB        17.2260   17.8480   65.8050 C.3   221  ILE221      0.0276
    113  CG1       16.7780   19.1600   65.3270 C.3   221  ILE221      0.0022
    114  CG2       17.1660   17.0020   64.5560 C.3   221  ILE221      0.0022
    115  CD1       17.1530   20.2880   66.2560 C.3   221  ILE221      0.0001
    116  N         15.8640   17.7250   60.6890 N.3   228  PRO228     -0.2116
    117  CA        17.3260   17.6080   60.7360 C.3   228  PRO228      0.1372
    118  C         18.1590   18.5480   59.8070 C.2   228  PRO228      0.2244
    119  O         19.2650   19.0030   60.0990 O.2   228  PRO228     -0.2868
    120  CB        17.4840   16.1170   60.5070 C.3   228  PRO228      0.0268
    121  CG        16.2500   15.4650   61.0930 C.3   228  PRO228      0.0207
    122  CD        15.1600   16.4250   60.6960 C.3   228  PRO228      0.0892
    123  N         19.3270   23.7370   65.1930 N.3   353  TYR353     -0.1241
    124  CA        19.8730   23.2440   66.4450 C.3   353  TYR353      0.1605
    125  C         20.5210   24.3360   67.2710 C.2   353  TYR353      0.2264
    126  O         20.3400   24.3270   68.4780 O.2   353  TYR353     -0.2867
    127  CB        21.0050   22.2840   66.3010 C.3   353  TYR353      0.0534
    128  CG        20.8350   21.0100   65.5800 C.ar  353  TYR353     -0.0201
    129  CD1       20.6210   20.9810   64.2130 C.ar  353  TYR353     -0.0009
    130  CD2       20.9080   19.8560   66.3320 C.ar  353  TYR353     -0.0009
    131  CE1       20.4660   19.7500   63.5670 C.ar  353  TYR353      0.0417
    132  CE2       20.7620   18.6200   65.6890 C.ar  353  TYR353      0.0417
    133  CZ        20.5360   18.5890   64.3080 C.ar  353  TYR353      0.1957
    134  OH        20.3560   17.3850   63.6680 O.3   353  TYR353     -0.2866
@<TRIPOS>BOND
     1   118   119    2
     2   118   117    1
     3   120   117    1
     4   120   121    1
     5   116   122    1
     6   116   117    1
     7   122   121    1
     8    90    89    2
     9    85    84    2
    10    89    88    1
    11    86    84   am
    12    72    71    2
    13    84    83    1
    14    71    70    1
    15   131   129   ar
    16   131   133   ar
    17   134   133    1
    18    88    91    1
    19    88    87    1
    20    82    81    2
    21    91    92    1
    22   129   128   ar
    23   133   132   ar
    24    79    80    1
    25    83    80    1
    26    81    87   am
    27    81    80    1
    28    70    69    1
    29    70    73    1
    30   114   112    1
    31   123   124    1
    32    46    47    1
    33    76    78   ar
    34    76    74   ar
    35   113   112    1
    36   113   115    1
    37    78    77   ar
    38    73    74    1
    39    74    75   ar
    40   128   127    1
    41   128   130   ar
    42   132   130   ar
    43    77    75   ar
    44   112   109    1
    45   127   124    1
    46   124   125    1
    47   110   111    2
    48   110   109    1
    49    47    50    1
    50    47    48    1
    51    50    51    1
    52   109   108    1
    53   103   101    1
    54   125   126    2
    55   108   106   am
    56    59    60    2
    57    59    58    1
    58    52    51    1
    59    52    53    1
    60    48    49    2
    61    53    54    2
    62    96    95    2
    63    54    56    1
    64    54    55    1
    65    45    44    1
    66   102   101    1
    67    44    43    1
    68   101   100    2
    69    58    61    1
    70    58    57    1
    71   106   107    2
    72   106   105    1
    73   104   105    1
    74    93    94    1
    75    95    94    1
    76    61    62    1
    77    39    40    2
    78    39    38    1
    79   100    99    1
    80    26    24   ar
    81    26    27   ar
    82    94    97    1
    83    43    42    1
    84    97    98    1
    85    28    27    1
    86    64    62   ar
    87    64    66   ar
    88    24    22   ar
    89    42    41    1
    90    62    63   ar
    91    98    99    1
    92    27    25   ar
    93    16    15    1
    94    38    41    1
    95    38    37    1
    96    66    67   ar
    97    63    65   ar
    98    22    21    1
    99    22    23   ar
   100    15    14    1
   101     6     5    1
   102    25    23   ar
   103    67    65   ar
   104    67    68    1
   105    21    18    1
   106     7     5    1
   107    20    19    2
   108     5     2    1
   109    14    13    1
   110    35    34    1
   111    36    34    1
   112     1     2    1
   113    18    19    1
   114    18    17    1
   115     4     3    2
   116    13    12    1
   117     2     3    1
   118    34    33    1
   119    32    31    2
   120    33    30    1
   121    31    30    1
   122    30    29    1
   123    12     9    1
   124    11    10    2
   125     8     9    1
   126    10     9    1
