@<TRIPOS>MOLECULE
tmp/1sg0A02.pdb
 92 88 0 0 0
SMALL
GASTEIGER

@<TRIPOS>ATOM
      1  N         35.7580   19.0350   -0.3530 N.3    67  TYR67      -0.1227
      2  CA        36.1260   17.7320    0.1860 C.3    67  TYR67       0.1736
      3  C         35.1140   16.6270   -0.1240 C.2    67  TYR67       0.2596
      4  O         35.4920   15.5400   -0.5680 O.2    67  TYR67      -0.2718
      5  CB        36.3330   17.8200    1.7040 C.3    67  TYR67       0.0548
      6  CG        36.9210   16.5550    2.2870 C.ar   67  TYR67      -0.0200
      7  CD1       38.2840   16.2860    2.1760 C.ar   67  TYR67      -0.0009
      8  CD2       36.1030   15.5910    2.8730 C.ar   67  TYR67      -0.0009
      9  CE1       38.8230   15.0770    2.6320 C.ar   67  TYR67       0.0417
     10  CE2       36.6270   14.3800    3.3280 C.ar   67  TYR67       0.0417
     11  CZ        37.9850   14.1300    3.2020 C.ar   67  TYR67       0.1957
     12  OH        38.4990   12.9220    3.6230 O.3    67  TYR67      -0.2866
     13  N         33.8360   16.9040    0.1220 N.am   68  GLY68      -0.1957
     14  CA        32.7980   15.9170   -0.1240 C.3    68  GLY68       0.1869
     15  C         32.7360   15.4390   -1.5630 C.2    68  GLY68       0.2309
     16  O         32.7160   14.2360   -1.8270 O.2    68  GLY68      -0.2863
     17  N         36.1850   13.5790   -2.6330 N.3    71  THR71      -0.1218
     18  CA        36.3290   12.2240   -2.1150 C.3    71  THR71       0.1862
     19  C         35.3170   11.2580   -2.7260 C.2    71  THR71       0.2287
     20  O         35.6240   10.0850   -2.9330 O.2    71  THR71      -0.2866
     21  CB        36.2260   12.1830   -0.5620 C.3    71  THR71       0.1770
     22  OG1       35.0240   12.8310   -0.1280 O.3    71  THR71      -0.2211
     23  CG2       37.4350   12.8710    0.0610 C.3    71  THR71       0.0375
     24  N         35.2110   10.8570    9.6560 N.3   117  ASP117     -0.1239
     25  CA        35.1400   11.8640    8.5960 C.3   117  ASP117      0.1674
     26  C         35.7360   11.3880    7.2720 C.2   117  ASP117      0.2266
     27  O         35.1540   11.6120    6.2100 O.2   117  ASP117     -0.2867
     28  CB        35.8980   13.1480    8.9700 C.3   117  ASP117      0.1410
     29  CG        35.3430   13.8500   10.1950 C.2   117  ASP117      0.3668
     30  OD1       34.2200   13.5410   10.6410 O.co2 117  ASP117     -0.2456
     31  OD2       36.0560   14.7400   10.7060 O.co2 117  ASP117     -0.2456
     32  N         34.2890    7.0670    6.0910 N.3   120  LEU120     -0.1231
     33  CA        32.8900    6.9270    5.6880 C.3   120  LEU120      0.1693
     34  C         32.4530    7.9280    4.6140 C.2   120  LEU120      0.2592
     35  O         31.5140    8.6940    4.8160 O.2   120  LEU120     -0.2718
     36  CB        31.9910    7.0550    6.9250 C.3   120  LEU120      0.0284
     37  CG        32.3660    6.1590    8.1130 C.3   120  LEU120      0.0019
     38  CD1       31.5020    6.4980    9.3180 C.3   120  LEU120      0.0001
     39  CD2       32.2020    4.6980    7.7230 C.3   120  LEU120      0.0001
     40  N         33.1150    7.9040    3.4590 N.am  121  CYS121     -0.1956
     41  CA        32.7860    8.8410    2.3840 C.3   121  CYS121      0.1843
     42  C         31.5870    8.4210    1.5390 C.2   121  CYS121      0.2625
     43  O         31.1460    7.2690    1.5820 O.2   121  CYS121     -0.2714
     44  CB        33.9990    9.0480    1.4690 C.3   121  CYS121      0.0997
     45  SG        34.4000    7.6480    0.3810 S.3   121  CYS121     -0.0797
     46  N         31.0520    9.3710    0.7760 N.am  122  GLN122     -0.1977
     47  CA        29.9160    9.0870   -0.0850 C.3   122  GLN122      0.1601
     48  C         30.3750    8.1070   -1.1570 C.2   122  GLN122      0.2287
     49  O         31.4870    8.2190   -1.6830 O.2   122  GLN122     -0.2864
     50  CB        29.3830   10.3780   -0.7210 C.3   122  GLN122      0.0394
     51  CG        28.2130   10.1550   -1.6690 C.3   122  GLN122      0.0908
     52  CD        27.3940   11.4140   -1.9070 C.2   122  GLN122      0.2608
     53  OE1       27.8320   12.5230   -1.6010 O.2   122  GLN122     -0.2717
     54  NE2       26.2000   11.2440   -2.4640 N.am  122  GLN122     -0.0878
     55  N         27.5140    5.5490    2.0850 N.3   126  PHE126     -0.1241
     56  CA        26.1630    5.9960    1.7710 C.3   126  PHE126      0.1605
     57  C         26.1700    6.7040    0.4260 C.2   126  PHE126      0.2264
     58  O         27.2240    7.0180   -0.1110 O.2   126  PHE126     -0.2867
     59  CB        25.6760    6.9940    2.8210 C.3   126  PHE126      0.0534
     60  CG        26.2740    8.3560    2.6540 C.ar  126  PHE126     -0.0203
     61  CD1       27.5780    8.6100    3.0670 C.ar  126  PHE126     -0.0042
     62  CD2       25.5780    9.3510    1.9750 C.ar  126  PHE126     -0.0042
     63  CE1       28.1780    9.8270    2.7970 C.ar  126  PHE126     -0.0003
     64  CE2       26.1740   10.5730    1.7010 C.ar  126  PHE126     -0.0003
     65  CZ        27.4740   10.8100    2.1090 C.ar  126  PHE126     -0.0000
     66  N         20.6680    6.1250    6.0310 N.3   132  TYR132     -0.1241
     67  CA        19.8620    5.6700    7.1550 C.3   132  TYR132      0.1605
     68  C         19.5070    4.2020    6.9030 C.2   132  TYR132      0.2264
     69  O         20.3990    3.4040    6.6280 O.2   132  TYR132     -0.2867
     70  CB        18.6180    6.5530    7.3380 C.3   132  TYR132      0.0534
     71  CG        18.9330    7.8290    8.1020 C.ar  132  TYR132     -0.0201
     72  CD1       19.5590    7.7760    9.3490 C.ar  132  TYR132     -0.0009
     73  CD2       18.6300    9.0830    7.5740 C.ar  132  TYR132     -0.0009
     74  CE1       19.8780    8.9390   10.0510 C.ar  132  TYR132      0.0417
     75  CE2       18.9450   10.2580    8.2720 C.ar  132  TYR132      0.0417
     76  CZ        19.5690   10.1750    9.5080 C.ar  132  TYR132      0.1957
     77  OH        19.8840   11.3270   10.2060 O.3   132  TYR132     -0.2866
     78  N         23.3490   10.1930   13.6660 N.3   174  GLY174     -0.1225
     79  CA        23.9290   11.0110   12.6170 C.3   174  GLY174      0.1811
     80  C         25.0440   10.3580   11.8270 C.2   174  GLY174      0.2280
     81  O         25.2820   10.7160   10.6780 O.2   174  GLY174     -0.2866
     82  N         23.0380    6.5590    9.8180 N.3   178  PHE178     -0.1241
     83  CA        23.0240    7.2130    8.5180 C.3   178  PHE178      0.1605
     84  C         23.7020    6.3450    7.4620 C.2   178  PHE178      0.2264
     85  O         23.2820    6.3170    6.3070 O.2   178  PHE178     -0.2867
     86  CB        23.7240    8.5730    8.5850 C.3   178  PHE178      0.0534
     87  CG        23.6210    9.3650    7.3130 C.ar  178  PHE178     -0.0203
     88  CD1       22.4510   10.0550    7.0000 C.ar  178  PHE178     -0.0042
     89  CD2       24.6820    9.4080    6.4150 C.ar  178  PHE178     -0.0042
     90  CE1       22.3420   10.7760    5.8100 C.ar  178  PHE178     -0.0003
     91  CE2       24.5860   10.1230    5.2240 C.ar  178  PHE178     -0.0003
     92  CZ        23.4080   10.8110    4.9200 C.ar  178  PHE178     -0.0000
@<TRIPOS>BOND
     1    20    19    2
     2    19    18    1
     3    17    18    1
     4    54    52   am
     5    18    21    1
     6    52    51    1
     7    52    53    2
     8    16    15    2
     9    49    48    2
    10    51    50    1
    11    15    14    1
    12    48    47    1
    13    50    47    1
    14     4     3    2
    15    21    22    1
    16    21    23    1
    17     1     2    1
    18    14    13    1
    19     3    13   am
    20     3     2    1
    21    58    57    2
    22    47    46    1
    23     2     5    1
    24    45    44    1
    25    57    56    1
    26    46    42   am
    27    44    41    1
    28    42    43    2
    29    42    41    1
    30    64    62   ar
    31    64    65   ar
    32     5     6    1
    33    56    55    1
    34    56    59    1
    35    62    60   ar
    36    65    63   ar
    37     7     6   ar
    38     7     9   ar
    39     6     8   ar
    40    41    40    1
    41     9    11   ar
    42    60    59    1
    43    60    61   ar
    44    63    61   ar
    45     8    10   ar
    46    11    10   ar
    47    11    12    1
    48    40    34   am
    49    34    35    2
    50    34    33    1
    51    92    91   ar
    52    92    90   ar
    53    91    89   ar
    54    33    32    1
    55    33    36    1
    56    90    88   ar
    57    66    67    1
    58    27    26    2
    59    85    84    2
    60    89    87   ar
    61    69    68    2
    62    68    67    1
    63    36    37    1
    64    88    87   ar
    65    67    70    1
    66    26    25    1
    67    87    86    1
    68    70    71    1
    69    84    83    1
    70    73    71   ar
    71    73    75   ar
    72    39    37    1
    73    71    72   ar
    74    37    38    1
    75    75    76   ar
    76    83    86    1
    77    83    82    1
    78    25    28    1
    79    25    24    1
    80    28    29    1
    81    72    74   ar
    82    76    74   ar
    83    76    77    1
    84    29    30   ar
    85    29    31   ar
    86    81    80    2
    87    80    79    1
    88    79    78    1
