@<TRIPOS>MOLECULE
tmp/1sg9A01.pdb
 112 108 0 0 0
SMALL
GASTEIGER

@<TRIPOS>ATOM
      1  N         30.4870   48.4020   72.1980 N.3    93  PHE93      -0.1241
      2  CA        29.7310   47.1660   72.1850 C.3    93  PHE93       0.1605
      3  C         30.0470   46.4450   70.8700 C.2    93  PHE93       0.2264
      4  O         30.1130   47.0820   69.8170 O.2    93  PHE93      -0.2867
      5  CB        28.2470   47.4980   72.2610 C.3    93  PHE93       0.0534
      6  CG        27.3540   46.3070   72.3990 C.ar   93  PHE93      -0.0203
      7  CD1       27.1510   45.7120   73.6460 C.ar   93  PHE93      -0.0042
      8  CD2       26.6670   45.8120   71.2910 C.ar   93  PHE93      -0.0042
      9  CE1       26.2680   44.6430   73.7870 C.ar   93  PHE93      -0.0003
     10  CE2       25.7770   44.7460   71.4100 C.ar   93  PHE93      -0.0003
     11  CZ        25.5720   44.1560   72.6620 C.ar   93  PHE93      -0.0000
     12  N         26.1890   41.9870   67.4700 N.3    96  ARG96      -0.1245
     13  CA        25.7000   40.6360   67.6990 C.3    96  ARG96       0.1563
     14  C         24.9710   40.0700   66.4760 C.2    96  ARG96       0.2260
     15  O         24.3810   40.8090   65.6800 O.2    96  ARG96      -0.2867
     16  CB        24.7570   40.6330   68.8980 C.3    96  ARG96       0.0307
     17  CG        25.4030   41.1170   70.1850 C.3    96  ARG96       0.0489
     18  CD        26.4670   40.1570   70.6600 C.3    96  ARG96       0.2205
     19  NE        26.6070   40.2160   72.1120 N.pl3  96  ARG96      -0.0865
     20  CZ        27.4490   41.0100   72.7700 C.cat  96  ARG96       0.5346
     21  NH1       28.2610   41.8350   72.1150 N.pl3  96  ARG96       0.1354
     22  NH2       27.4720   40.9820   74.0980 N.pl3  96  ARG96       0.1354
     23  N         22.1190   38.5370   66.1180 N.3    98  GLU98      -0.1245
     24  CA        20.6990   38.8440   66.0300 C.3    98  GLU98       0.1567
     25  C         20.4410   40.2180   65.4270 C.2    98  GLU98       0.2260
     26  O         19.4230   40.4300   64.7700 O.2    98  GLU98      -0.2867
     27  CB        20.0240   38.7710   67.4080 C.3    98  GLU98       0.0388
     28  CG        19.9420   37.3710   67.9940 C.3    98  GLU98       0.1160
     29  CD        21.1090   37.0530   68.9040 C.2    98  GLU98       0.3649
     30  OE1       22.2600   37.3810   68.5440 O.co2  98  GLU98      -0.2457
     31  OE2       20.8680   36.4730   69.9820 O.co2  98  GLU98      -0.2457
     32  N         19.1680   49.1720   68.5520 N.3   190  ASN190     -0.1226
     33  CA        19.4120   47.9690   69.3350 C.3   190  ASN190      0.1770
     34  C         19.9210   48.6150   70.6180 C.2   190  ASN190      0.2439
     35  O         21.1250   48.7450   70.8380 O.2   190  ASN190     -0.2733
     36  CB        20.4950   47.0790   68.7330 C.3   190  ASN190      0.1168
     37  CG        20.8980   45.9630   69.6770 C.2   190  ASN190      0.2627
     38  OD1       20.1070   45.5530   70.5280 O.2   190  ASN190     -0.2716
     39  ND2       22.1230   45.4630   69.5340 N.am  190  ASN190     -0.0877
     40  N         18.9960   49.0510   71.4740 N.am  191  PRO191     -0.2718
     41  CA        19.2960   49.7100   72.7410 C.3   191  PRO191      0.1520
     42  C         19.6580   48.7760   73.8690 C.2   191  PRO191      0.2440
     43  O         19.5910   47.5550   73.7360 O.2   191  PRO191     -0.2731
     44  CB        18.0010   50.4350   73.0330 C.3   191  PRO191      0.0310
     45  CG        17.0020   49.3670   72.6640 C.3   191  PRO191      0.0237
     46  CD        17.5420   48.8400   71.3380 C.3   191  PRO191      0.0939
     47  N         20.0740   49.3470   75.0020 N.am  192  PRO192     -0.2716
     48  CA        20.4220   48.5060   76.1490 C.3   192  PRO192      0.1536
     49  C         19.0900   48.0140   76.7040 C.2   192  PRO192      0.2599
     50  O         18.2290   48.8270   77.0090 O.2   192  PRO192     -0.2715
     51  CB        21.1170   49.4810   77.0930 C.3   192  PRO192      0.0310
     52  CG        20.4550   50.7920   76.7770 C.3   192  PRO192      0.0237
     53  CD        20.3780   50.7650   75.2670 C.3   192  PRO192      0.0939
     54  N         18.8970   46.7020   76.8060 N.am  193  TYR193     -0.1960
     55  CA        17.6390   46.1830   77.3380 C.3   193  TYR193      0.1771
     56  C         17.8190   45.0390   78.3440 C.2   193  TYR193      0.2619
     57  O         16.9370   44.1990   78.5220 O.2   193  TYR193     -0.2715
     58  CB        16.7050   45.7600   76.1900 C.3   193  TYR193      0.0574
     59  CG        17.2610   44.7420   75.2210 C.ar  193  TYR193     -0.0198
     60  CD1       17.5230   43.4330   75.6220 C.ar  193  TYR193     -0.0009
     61  CD2       17.5110   45.0860   73.8880 C.ar  193  TYR193     -0.0009
     62  CE1       18.0260   42.4820   74.7180 C.ar  193  TYR193      0.0417
     63  CE2       18.0100   44.1450   72.9740 C.ar  193  TYR193      0.0417
     64  CZ        18.2670   42.8470   73.3990 C.ar  193  TYR193      0.1957
     65  OH        18.7780   41.9230   72.5150 O.3   193  TYR193     -0.2866
     66  N         18.9700   45.0250   79.0070 N.am  194  VAL194     -0.1977
     67  CA        19.2780   44.0100   80.0040 C.3   194  VAL194      0.1596
     68  C         18.8440   44.5360   81.3690 C.2   194  VAL194      0.2287
     69  O         18.9980   45.7210   81.6530 O.2   194  VAL194     -0.2864
     70  CB        20.7950   43.7090   80.0180 C.3   194  VAL194      0.0276
     71  CG1       21.1450   42.7730   81.1630 C.3   194  VAL194      0.0022
     72  CG2       21.2090   43.0950   78.6890 C.3   194  VAL194      0.0022
     73  N         30.9600   39.6830   78.4820 N.3   204  VAL204     -0.1245
     74  CA        30.2160   40.9470   78.4270 C.3   204  VAL204      0.1561
     75  C         30.6170   41.8480   79.5980 C.2   204  VAL204      0.2260
     76  O         30.2670   43.0290   79.6500 O.2   204  VAL204     -0.2867
     77  CB        28.6730   40.7370   78.4300 C.3   204  VAL204      0.0252
     78  CG1       28.3260   39.4490   77.7030 C.3   204  VAL204      0.0019
     79  CG2       28.1300   40.7520   79.8410 C.3   204  VAL204      0.0019
     80  N         25.8840   50.2420   77.5970 N.3   211  ALA211     -0.1231
     81  CA        25.3860   49.6140   76.3870 C.3   211  ALA211      0.1694
     82  C         24.4920   48.4400   76.7180 C.2   211  ALA211      0.2591
     83  O         23.8030   47.9090   75.8480 O.2   211  ALA211     -0.2718
     84  CB        26.5510   49.1470   75.5390 C.3   211  ALA211      0.0304
     85  N         24.4800   48.0570   77.9900 N.am  212  LEU212     -0.1980
     86  CA        23.7040   46.9080   78.4200 C.3   212  LEU212      0.1596
     87  C         22.4310   47.1440   79.2260 C.2   212  LEU212      0.2287
     88  O         21.3470   46.7260   78.8220 O.2   212  LEU212     -0.2864
     89  CB        24.6130   45.9740   79.2230 C.3   212  LEU212      0.0297
     90  CG        25.8720   45.4410   78.5290 C.3   212  LEU212      0.0022
     91  CD1       26.8300   44.8640   79.5650 C.3   212  LEU212      0.0001
     92  CD2       25.4790   44.3880   77.5190 C.3   212  LEU212      0.0001
     93  N         15.3930   46.2770   68.4610 N.3   239  GLU239     -0.1245
     94  CA        15.6660   44.9510   69.0090 C.3   239  GLU239      0.1567
     95  C         15.1890   44.9500   70.4790 C.2   239  GLU239      0.2260
     96  O         15.2700   45.9720   71.1520 O.2   239  GLU239     -0.2867
     97  CB        17.1680   44.6520   68.9200 C.3   239  GLU239      0.0388
     98  CG        17.5610   43.3020   69.5060 C.3   239  GLU239      0.1160
     99  CD        19.0200   42.9590   69.2810 C.2   239  GLU239      0.3649
    100  OE1       19.5840   42.2350   70.1280 O.co2 239  GLU239     -0.2457
    101  OE2       19.6030   43.3990   68.2640 O.co2 239  GLU239     -0.2457
    102  N         12.5040   38.9850   69.1940 N.3   266  ARG266     -0.1245
    103  CA        13.6870   39.8190   69.1320 C.3   266  ARG266      0.1563
    104  C         13.4900   41.2180   68.5730 C.2   266  ARG266      0.2260
    105  O         14.3720   42.0600   68.7190 O.2   266  ARG266     -0.2867
    106  CB        14.7430   39.1060   68.2910 C.3   266  ARG266      0.0307
    107  CG        16.1490   39.6350   68.4360 C.3   266  ARG266      0.0489
    108  CD        16.9140   38.7880   69.4280 C.3   266  ARG266      0.2205
    109  NE        16.6280   39.1480   70.8100 N.pl3 266  ARG266     -0.0865
    110  CZ        16.7370   38.3090   71.8300 C.cat 266  ARG266      0.5346
    111  NH1       17.1100   37.0560   71.6140 N.pl3 266  ARG266      0.1354
    112  NH2       16.5080   38.7330   73.0670 N.pl3 266  ARG266      0.1354
@<TRIPOS>BOND
     1    26    25    2
     2    25    24    1
     3    15    14    2
     4    24    23    1
     5    24    27    1
     6    14    13    1
     7    27    28    1
     8    12    13    1
     9    13    16    1
    10    28    29    1
    11   101    99   ar
    12   106   107    1
    13   106   103    1
    14   107   108    1
    15    93    94    1
    16    30    29   ar
    17    32    33    1
    18   104   105    2
    19   104   103    1
    20    36    33    1
    21    36    37    1
    22    16    17    1
    23    29    31   ar
    24    97    94    1
    25    97    98    1
    26    94    95    1
    27   103   102    1
    28    99    98    1
    29    99   100   ar
    30    33    34    1
    31   108   109    1
    32    39    37   am
    33    37    38    2
    34     4     3    2
    35    17    18    1
    36    95    96    2
    37    34    35    2
    38    34    40   am
    39    18    19    1
    40   109   110    2
    41     3     2    1
    42     8    10   ar
    43     8     6   ar
    44    46    40    1
    45    46    45    1
    46    10    11   ar
    47    40    41    1
    48   111   110    1
    49   110   112    1
    50    19    20    2
    51    21    20    1
    52     2     1    1
    53     2     5    1
    54     5     6    1
    55     6     7   ar
    56    65    64    1
    57    11     9   ar
    58    45    44    1
    59    41    44    1
    60    41    42    1
    61    20    22    1
    62    63    64   ar
    63    63    61   ar
    64    64    62   ar
    65     7     9   ar
    66    43    42    2
    67    42    47   am
    68    61    59   ar
    69    62    60   ar
    70    47    53    1
    71    47    48    1
    72    59    60   ar
    73    59    58    1
    74    53    52    1
    75    84    81    1
    76    83    82    2
    77    48    49    1
    78    48    51    1
    79    58    55    1
    80    81    82    1
    81    81    80    1
    82    49    54   am
    83    49    50    2
    84    82    85   am
    85    52    51    1
    86    54    55    1
    87    55    56    1
    88    92    90    1
    89    78    77    1
    90    85    86    1
    91    56    57    2
    92    56    66   am
    93    86    89    1
    94    86    87    1
    95    74    77    1
    96    74    73    1
    97    74    75    1
    98    77    79    1
    99    90    89    1
   100    90    91    1
   101    72    70    1
   102    88    87    2
   103    66    67    1
   104    75    76    2
   105    67    70    1
   106    67    68    1
   107    70    71    1
   108    68    69    2
