@<TRIPOS>MOLECULE
tmp/1sg9A00.pdb
 197 192 0 0 0
SMALL
GASTEIGER

@<TRIPOS>ATOM
      1  N         30.4870   48.4020   72.1980 N.3    93  PHE93      -0.1241
      2  CA        29.7310   47.1660   72.1850 C.3    93  PHE93       0.1605
      3  C         30.0470   46.4450   70.8700 C.2    93  PHE93       0.2264
      4  O         30.1130   47.0820   69.8170 O.2    93  PHE93      -0.2867
      5  CB        28.2470   47.4980   72.2610 C.3    93  PHE93       0.0534
      6  CG        27.3540   46.3070   72.3990 C.ar   93  PHE93      -0.0203
      7  CD1       27.1510   45.7120   73.6460 C.ar   93  PHE93      -0.0042
      8  CD2       26.6670   45.8120   71.2910 C.ar   93  PHE93      -0.0042
      9  CE1       26.2680   44.6430   73.7870 C.ar   93  PHE93      -0.0003
     10  CE2       25.7770   44.7460   71.4100 C.ar   93  PHE93      -0.0003
     11  CZ        25.5720   44.1560   72.6620 C.ar   93  PHE93      -0.0000
     12  N         29.0500   44.1260   67.8480 N.3    95  PRO95      -0.2102
     13  CA        27.8400   43.7420   67.1200 C.3    95  PRO95       0.1504
     14  C         27.4810   42.2660   67.3490 C.2    95  PRO95       0.2575
     15  O         28.3580   41.4060   67.4130 O.2    95  PRO95      -0.2718
     16  CB        28.2100   44.0370   65.6680 C.3    95  PRO95       0.0282
     17  CG        29.1670   45.1660   65.7800 C.3    95  PRO95       0.0208
     18  CD        30.0240   44.7690   66.9470 C.3    95  PRO95       0.0893
     19  N         26.1890   41.9870   67.4700 N.am   96  ARG96      -0.1980
     20  CA        25.7000   40.6360   67.6990 C.3    96  ARG96       0.1597
     21  C         24.9710   40.0700   66.4760 C.2    96  ARG96       0.2287
     22  O         24.3810   40.8090   65.6800 O.2    96  ARG96      -0.2864
     23  CB        24.7570   40.6330   68.8980 C.3    96  ARG96       0.0334
     24  CG        25.4030   41.1170   70.1850 C.3    96  ARG96       0.0492
     25  CD        26.4670   40.1570   70.6600 C.3    96  ARG96       0.2205
     26  NE        26.6070   40.2160   72.1120 N.pl3  96  ARG96      -0.0865
     27  CZ        27.4490   41.0100   72.7700 C.cat  96  ARG96       0.5346
     28  NH1       28.2610   41.8350   72.1150 N.pl3  96  ARG96       0.1354
     29  NH2       27.4720   40.9820   74.0980 N.pl3  96  ARG96       0.1354
     30  N         21.3560   41.1540   65.6500 N.3    99  THR99      -0.1218
     31  CA        21.1700   42.4940   65.1240 C.3    99  THR99       0.1862
     32  C         21.2850   42.5250   63.6000 C.2    99  THR99       0.2287
     33  O         20.7990   43.4590   62.9630 O.2    99  THR99      -0.2866
     34  CB        22.1680   43.4790   65.7440 C.3    99  THR99       0.1770
     35  OG1       22.1790   43.3100   67.1640 O.3    99  THR99      -0.2211
     36  CG2       21.7510   44.9030   65.4400 C.3    99  THR99       0.0375
     37  N         19.5310   55.9380   63.6470 N.3   120  ASP120     -0.1225
     38  CA        20.1090   54.8080   64.3630 C.3   120  ASP120      0.1805
     39  C         20.5270   55.3050   65.7400 C.2   120  ASP120      0.2598
     40  O         21.5920   55.9110   65.8920 O.2   120  ASP120     -0.2718
     41  CB        21.3280   54.2620   63.6050 C.3   120  ASP120      0.1424
     42  CG        22.0240   53.1180   64.3430 C.2   120  ASP120      0.3668
     43  OD1       21.3830   52.4560   65.1910 O.co2 120  ASP120     -0.2456
     44  OD2       23.2170   52.8670   64.0650 O.co2 120  ASP120     -0.2456
     45  N         19.6790   55.0680   66.7350 N.am  121  ILE121     -0.1966
     46  CA        19.9630   55.4990   68.0990 C.3   121  ILE121      0.1727
     47  C         20.8040   54.4450   68.8150 C.2   121  ILE121      0.2617
     48  O         20.4630   53.2600   68.8030 O.2   121  ILE121     -0.2715
     49  CB        18.6540   55.7410   68.8910 C.3   121  ILE121      0.0290
     50  CG1       17.7370   56.6760   68.1080 C.3   121  ILE121      0.0022
     51  CG2       18.9720   56.3920   70.2260 C.3   121  ILE121      0.0023
     52  CD1       16.3410   56.7970   68.6920 C.3   121  ILE121      0.0001
     53  N         21.8930   54.8840   69.4470 N.am  122  GLY122     -0.1940
     54  CA        22.7840   53.9530   70.1260 C.3   122  GLY122      0.2014
     55  C         23.5550   53.1940   69.0570 C.2   122  GLY122      0.2640
     56  O         23.5950   51.9610   69.0500 O.2   122  GLY122     -0.2714
     57  N         24.1720   53.9480   68.1510 N.am  123  THR123     -0.1936
     58  CA        24.9050   53.3830   67.0250 C.3   123  THR123      0.2028
     59  C         26.1020   52.4980   67.3980 C.2   123  THR123      0.2643
     60  O         26.5010   51.6340   66.6240 O.2   123  THR123     -0.2714
     61  CB        25.3510   54.5210   66.0440 C.3   123  THR123      0.1808
     62  OG1       25.6530   53.9630   64.7630 O.3   123  THR123     -0.2208
     63  CG2       26.5750   55.2570   66.5660 C.3   123  THR123      0.0379
     64  N         26.6670   52.7000   68.5790 N.am  124  GLY124     -0.1939
     65  CA        27.8080   51.8950   68.9740 C.3   124  GLY124      0.2014
     66  C         28.9360   51.9790   67.9610 C.2   124  GLY124      0.2639
     67  O         29.4760   53.0580   67.7210 O.2   124  GLY124     -0.2714
     68  N         29.2830   50.8430   67.3630 N.am  125  SER125     -0.1949
     69  CA        30.3540   50.7740   66.3660 C.3   125  SER125      0.1924
     70  C         29.8900   51.2960   65.0230 C.2   125  SER125      0.2314
     71  O         30.7100   51.5730   64.1440 O.2   125  SER125     -0.2863
     72  CB        30.8130   49.3280   66.1780 C.3   125  SER125      0.2116
     73  OG        29.7380   48.5110   65.7280 O.3   125  SER125     -0.2180
     74  N         27.3700   49.5370   63.4100 N.3   127  ALA127     -0.1231
     75  CA        26.8410   48.3400   62.7600 C.3   127  ALA127      0.1694
     76  C         25.5230   48.5160   61.9940 C.2   127  ALA127      0.2591
     77  O         25.4460   48.2370   60.7990 O.2   127  ALA127     -0.2718
     78  CB        26.6990   47.2140   63.7830 C.3   127  ALA127      0.0304
     79  N         24.4790   48.9590   62.6770 N.am  128  ILE128     -0.1980
     80  CA        23.2000   49.1430   62.0210 C.3   128  ILE128      0.1595
     81  C         23.2420   50.2940   61.0180 C.2   128  ILE128      0.2287
     82  O         23.0390   50.0880   59.8190 O.2   128  ILE128     -0.2864
     83  CB        22.0880   49.4130   63.0480 C.3   128  ILE128      0.0276
     84  CG1       22.0290   48.2580   64.0550 C.3   128  ILE128      0.0022
     85  CG2       20.7500   49.5910   62.3270 C.3   128  ILE128      0.0022
     86  CD1       20.9660   48.4250   65.1330 C.3   128  ILE128      0.0001
     87  N         23.2830   58.4450   66.6710 N.3   143  THR143     -0.1203
     88  CA        23.6600   59.0570   67.9350 C.3   143  THR143      0.1994
     89  C         24.1480   58.0370   68.9420 C.2   143  THR143      0.2618
     90  O         23.8250   56.8530   68.8630 O.2   143  THR143     -0.2717
     91  CB        22.4700   59.7170   68.6240 C.3   143  THR143      0.1784
     92  OG1       21.5600   58.6840   69.0450 O.3   143  THR143     -0.2211
     93  CG2       21.7690   60.7070   67.6880 C.3   143  THR143      0.0376
     94  N         24.9130   58.5190   69.9070 N.am  144  ASP144     -0.1959
     95  CA        25.3600   57.6740   70.9870 C.3   144  ASP144      0.1840
     96  C         25.7800   58.5750   72.1360 C.2   144  ASP144      0.2622
     97  O         26.2900   59.6770   71.9110 O.2   144  ASP144     -0.2715
     98  CB        26.5100   56.7660   70.5460 C.3   144  ASP144      0.1450
     99  CG        26.5710   55.4930   71.3670 C.2   144  ASP144      0.3671
    100  OD1       26.9080   55.5920   72.5650 O.co2 144  ASP144     -0.2456
    101  OD2       26.2560   54.4060   70.8270 O.co2 144  ASP144     -0.2456
    102  N         25.5380   58.1240   73.3630 N.am  145  VAL145     -0.1963
    103  CA        25.9150   58.9070   74.5400 C.3   145  VAL145      0.1727
    104  C         27.4150   58.7750   74.7720 C.2   145  VAL145      0.2616
    105  O         28.0230   59.5990   75.4560 O.2   145  VAL145     -0.2715
    106  CB        25.1870   58.4220   75.8230 C.3   145  VAL145      0.0290
    107  CG1       23.7050   58.6190   75.6760 C.3   145  VAL145      0.0023
    108  CG2       25.5070   56.9620   76.0890 C.3   145  VAL145      0.0023
    109  N         28.0030   57.7350   74.1810 N.am  146  SER146     -0.1950
    110  CA        29.4290   57.4620   74.3240 C.3   146  SER146      0.1924
    111  C         30.3240   58.1330   73.2960 C.2   146  SER146      0.2314
    112  O         30.2260   57.8990   72.0910 O.2   146  SER146     -0.2863
    113  CB        29.6960   55.9630   74.2850 C.3   146  SER146      0.2116
    114  OG        31.0910   55.7230   74.2380 O.3   146  SER146     -0.2180
    115  N         32.0700   55.7080   71.1860 N.3   149  ALA149     -0.1245
    116  CA        31.2790   55.0440   70.1550 C.3   149  ALA149      0.1562
    117  C         31.1840   55.9400   68.9320 C.2   149  ALA149      0.2260
    118  O         31.2920   55.4860   67.7940 O.2   149  ALA149     -0.2867
    119  CB        29.8920   54.7240   70.6730 C.3   149  ALA149      0.0290
    120  N         25.2500   62.2570   72.1580 N.3   171  GLY171     -0.1210
    121  CA        24.0300   62.6830   72.8140 C.3   171  GLY171      0.1956
    122  C         23.0480   61.5420   72.9540 C.2   171  GLY171      0.2612
    123  O         23.3140   60.4390   72.4760 O.2   171  GLY171     -0.2717
    124  N         21.9110   61.7890   73.6020 N.am  172  GLU172     -0.1965
    125  CA        20.9280   60.7300   73.7740 C.3   172  GLU172      0.1733
    126  C         19.7220   60.7820   72.8470 C.2   172  GLU172      0.2616
    127  O         19.3030   61.8490   72.3960 O.2   172  GLU172     -0.2715
    128  CB        20.4690   60.6450   75.2320 C.3   172  GLU172      0.0429
    129  CG        20.0650   61.9370   75.8920 C.3   172  GLU172      0.1163
    130  CD        19.6610   61.7120   77.3510 C.2   172  GLU172      0.3649
    131  OE1       20.5110   61.2140   78.1270 O.co2 172  GLU172     -0.2457
    132  OE2       18.4970   62.0230   77.7160 O.co2 172  GLU172     -0.2457
    133  N         19.1890   59.5960   72.5580 N.am  173  PHE173     -0.1974
    134  CA        18.0430   59.4400   71.6810 C.3   173  PHE173      0.1639
    135  C         18.2850   60.2510   70.4190 C.2   173  PHE173      0.2290
    136  O         19.2600   60.0100   69.7170 O.2   173  PHE173     -0.2864
    137  CB        16.7780   59.8820   72.4190 C.3   173  PHE173      0.0560
    138  CG        16.5200   59.0950   73.6720 C.ar  173  PHE173     -0.0200
    139  CD1       16.0080   57.8040   73.6090 C.ar  173  PHE173     -0.0042
    140  CD2       16.8720   59.6070   74.9200 C.ar  173  PHE173     -0.0042
    141  CE1       15.8540   57.0310   74.7720 C.ar  173  PHE173     -0.0003
    142  CE2       16.7230   58.8380   76.0820 C.ar  173  PHE173     -0.0003
    143  CZ        16.2170   57.5530   76.0060 C.ar  173  PHE173     -0.0000
    144  N         19.1680   49.1720   68.5520 N.3   190  ASN190     -0.1226
    145  CA        19.4120   47.9690   69.3350 C.3   190  ASN190      0.1770
    146  C         19.9210   48.6150   70.6180 C.2   190  ASN190      0.2439
    147  O         21.1250   48.7450   70.8380 O.2   190  ASN190     -0.2733
    148  CB        20.4950   47.0790   68.7330 C.3   190  ASN190      0.1168
    149  CG        20.8980   45.9630   69.6770 C.2   190  ASN190      0.2627
    150  OD1       20.1070   45.5530   70.5280 O.2   190  ASN190     -0.2716
    151  ND2       22.1230   45.4630   69.5340 N.am  190  ASN190     -0.0877
    152  N         18.9960   49.0510   71.4740 N.am  191  PRO191     -0.2718
    153  CA        19.2960   49.7100   72.7410 C.3   191  PRO191      0.1520
    154  C         19.6580   48.7760   73.8690 C.2   191  PRO191      0.2440
    155  O         19.5910   47.5550   73.7360 O.2   191  PRO191     -0.2731
    156  CB        18.0010   50.4350   73.0330 C.3   191  PRO191      0.0310
    157  CG        17.0020   49.3670   72.6640 C.3   191  PRO191      0.0237
    158  CD        17.5420   48.8400   71.3380 C.3   191  PRO191      0.0939
    159  N         20.0740   49.3470   75.0020 N.am  192  PRO192     -0.2727
    160  CA        20.4220   48.5060   76.1490 C.3   192  PRO192      0.1402
    161  C         19.0900   48.0140   76.7040 C.2   192  PRO192      0.2269
    162  O         18.2290   48.8270   77.0090 O.2   192  PRO192     -0.2865
    163  CB        21.1170   49.4810   77.0930 C.3   192  PRO192      0.0296
    164  CG        20.4550   50.7920   76.7770 C.3   192  PRO192      0.0237
    165  CD        20.3780   50.7650   75.2670 C.3   192  PRO192      0.0939
    166  N         30.9790   48.0290   77.4660 N.3   208  PRO208     -0.2116
    167  CA        30.4480   49.2070   78.1570 C.3   208  PRO208      0.1372
    168  C         29.1430   48.8890   78.8640 C.2   208  PRO208      0.2244
    169  O         28.2120   48.3700   78.2490 O.2   208  PRO208     -0.2868
    170  CB        30.2430   50.2200   77.0290 C.3   208  PRO208      0.0268
    171  CG        31.1830   49.7560   75.9500 C.3   208  PRO208      0.0207
    172  CD        31.0450   48.2590   76.0120 C.3   208  PRO208      0.0892
    173  N         26.9420   50.9450   79.9050 N.3   210  GLU210     -0.1231
    174  CA        25.8770   51.8300   79.4160 C.3   210  GLU210      0.1699
    175  C         25.2400   51.2530   78.1640 C.2   210  GLU210      0.2592
    176  O         24.1930   51.7270   77.7100 O.2   210  GLU210     -0.2718
    177  CB        26.4040   53.2290   79.0680 C.3   210  GLU210      0.0402
    178  CG        27.6050   53.6920   79.8760 C.3   210  GLU210      0.1161
    179  CD        28.9220   53.1150   79.3630 C.2   210  GLU210      0.3649
    180  OE1       29.2730   53.3580   78.1780 O.co2 210  GLU210     -0.2457
    181  OE2       29.6050   52.4270   80.1560 O.co2 210  GLU210     -0.2457
    182  N         25.8840   50.2420   77.5970 N.am  211  ALA211     -0.1980
    183  CA        25.3860   49.6140   76.3870 C.3   211  ALA211      0.1597
    184  C         24.4920   48.4400   76.7180 C.2   211  ALA211      0.2287
    185  O         23.8030   47.9090   75.8480 O.2   211  ALA211     -0.2864
    186  CB        26.5510   49.1470   75.5390 C.3   211  ALA211      0.0319
    187  N         14.8760   52.4780   78.3450 N.3   221  PHE221     -0.1241
    188  CA        15.1110   53.1500   77.0700 C.3   221  PHE221      0.1605
    189  C         13.7970   53.2750   76.3030 C.2   221  PHE221      0.2264
    190  O         13.4660   54.3520   75.8050 O.2   221  PHE221     -0.2867
    191  CB        16.1350   52.3750   76.2290 C.3   221  PHE221      0.0534
    192  CG        16.3160   52.9160   74.8300 C.ar  221  PHE221     -0.0203
    193  CD1       17.3340   53.8240   74.5440 C.ar  221  PHE221     -0.0042
    194  CD2       15.4720   52.5100   73.7980 C.ar  221  PHE221     -0.0042
    195  CE1       17.5150   54.3170   73.2450 C.ar  221  PHE221     -0.0003
    196  CE2       15.6390   52.9940   72.5000 C.ar  221  PHE221     -0.0003
    197  CZ        16.6690   53.9030   72.2220 C.ar  221  PHE221     -0.0000
@<TRIPOS>BOND
     1    82    81    2
     2    77    76    2
     3    81    80    1
     4    76    79   am
     5    76    75    1
     6    80    79    1
     7    80    83    1
     8    85    83    1
     9    75    74    1
    10    75    78    1
    11    33    32    2
    12    83    84    1
    13    32    31    1
    14    41    42    1
    15    41    38    1
    16    37    38    1
    17    84    86    1
    18    44    42   ar
    19    71    70    2
    20    42    43   ar
    21    38    39    1
    22    62    61    1
    23    70    69    1
    24    31    30    1
    25    31    34    1
    26    36    34    1
    27    16    17    1
    28    16    13    1
    29    22    21    2
    30    73    72    1
    31    39    40    2
    32    39    45   am
    33    34    35    1
    34    17    18    1
    35    61    63    1
    36    61    58    1
    37    72    69    1
    38    69    68    1
    39    21    20    1
    40    60    59    2
    41    87    88    1
    42    45    46    1
    43    18    12    1
    44    58    59    1
    45    58    57    1
    46    13    14    1
    47    13    12    1
    48    14    15    2
    49    14    19   am
    50    68    66   am
    51    59    64   am
    52    19    20    1
    53    93    91    1
    54    20    23    1
    55    67    66    2
    56   118   117    2
    57    88    91    1
    58    88    89    1
    59    66    65    1
    60    46    47    1
    61    46    49    1
    62    50    52    1
    63    50    49    1
    64    57    55   am
    65   144   145    1
    66    64    65    1
    67    91    92    1
    68   148   145    1
    69   148   149    1
    70    48    47    2
    71    47    53   am
    72    90    89    2
    73    49    51    1
    74    23    24    1
    75   117   116    1
    76    89    94   am
    77    56    55    2
    78    55    54    1
    79   145   146    1
    80    53    54    1
    81   151   149   am
    82   149   150    2
    83   136   135    2
    84     4     3    2
    85    94    95    1
    86   116   119    1
    87   116   115    1
    88    24    25    1
    89   135   134    1
    90    98    95    1
    91    98    99    1
    92   146   147    2
    93   146   152   am
    94    25    26    1
    95   101    99   ar
    96     3     2    1
    97    95    96    1
    98     8    10   ar
    99     8     6   ar
   100   158   152    1
   101   158   157    1
   102    99   100   ar
   103    10    11   ar
   104   152   153    1
   105   134   137    1
   106   134   133    1
   107    97    96    2
   108   112   111    2
   109    26    27    2
   110    28    27    1
   111    96   102   am
   112   120   121    1
   113     2     1    1
   114     2     5    1
   115   197   196   ar
   116   197   195   ar
   117     5     6    1
   118   127   126    2
   119     6     7   ar
   120   137   138    1
   121   123   122    2
   122   196   194   ar
   123   133   126   am
   124    11     9   ar
   125   157   156    1
   126   153   156    1
   127   153   154    1
   128    27    29    1
   129   121   122    1
   130   126   125    1
   131   122   124   am
   132   195   193   ar
   133   111   110    1
   134   102   103    1
   135   124   125    1
   136   139   138   ar
   137   139   141   ar
   138     7     9   ar
   139   138   140   ar
   140   155   154    2
   141   125   128    1
   142   194   192   ar
   143   154   159   am
   144   109   110    1
   145   109   104   am
   146   114   113    1
   147   113   110    1
   148   103   104    1
   149   103   106    1
   150   193   192   ar
   151   141   143   ar
   152   104   105    2
   153   192   191    1
   154   140   142   ar
   155   159   165    1
   156   159   160    1
   157   128   129    1
   158   165   164    1
   159   186   183    1
   160   107   106    1
   161   190   189    2
   162   106   108    1
   163   185   184    2
   164   129   130    1
   165   171   172    1
   166   171   170    1
   167   143   142   ar
   168   172   166    1
   169   160   161    1
   170   160   163    1
   171   191   188    1
   172   189   188    1
   173   183   184    1
   174   183   182    1
   175   161   162    2
   176   164   163    1
   177   170   167    1
   178   188   187    1
   179   130   132   ar
   180   130   131   ar
   181   166   167    1
   182   182   175   am
   183   176   175    2
   184   167   168    1
   185   175   174    1
   186   180   179   ar
   187   169   168    2
   188   177   174    1
   189   177   178    1
   190   179   178    1
   191   179   181   ar
   192   174   173    1
