@<TRIPOS>MOLECULE
tmp/1sgcA00.pdb
 161 157 0 0 0
SMALL
GASTEIGER

@<TRIPOS>ATOM
      1  N         -9.7320   16.4100   30.5780 N.3    14  CYS14      -0.1235
      2  CA        -9.7880   16.4270   29.0970 C.3    14  CYS14       0.1677
      3  C         -9.6380   14.9880   28.6980 C.2    14  CYS14       0.2270
      4  O         -9.6080   14.1500   29.6240 O.2    14  CYS14      -0.2867
      5  CB        -8.7060   17.2920   28.4320 C.3    14  CYS14       0.0956
      6  SG        -9.1200   19.0430   28.6450 S.3    14  CYS14      -0.0801
      7  N         -6.7130   23.8290   23.9740 N.3    33  HIS33      -0.1226
      8  CA        -7.3630   24.6730   25.0290 C.3    33  HIS33       0.1752
      9  C         -7.1890   23.8950   26.3410 C.2    33  HIS33       0.2596
     10  O         -7.2830   24.4620   27.4590 O.2    33  HIS33      -0.2718
     11  CB        -8.7860   24.9870   24.5810 C.3    33  HIS33       0.0759
     12  CG        -9.7480   23.8120   24.6190 C.ar   33  HIS33       0.0818
     13  ND1      -10.1990   23.1790   23.4770 N.ar   33  HIS33      -0.2268
     14  CD2      -10.4620   23.2360   25.6750 C.ar   33  HIS33       0.1154
     15  CE1      -11.0560   22.2030   23.7030 C.ar   33  HIS33       0.1986
     16  NE2      -11.2030   22.2780   25.0610 N.ar   33  HIS33      -0.2212
     17  N         -6.9020   22.5790   26.2690 N.am   34  CYS34      -0.1970
     18  CA        -6.6420   21.8090   27.4390 C.3    34  CYS34       0.1712
     19  C         -5.2160   22.0600   27.9420 C.2    34  CYS34       0.2296
     20  O         -4.9320   22.3580   29.0840 O.2    34  CYS34      -0.2864
     21  CB        -6.7410   20.2270   27.1930 C.3    34  CYS34       0.0983
     22  SG        -8.5190   19.9010   26.9550 S.3    34  CYS34      -0.0798
     23  N         -3.3990   27.2350   21.0350 N.3    51  PHE51      -0.1241
     24  CA        -4.8200   27.6000   21.1270 C.3    51  PHE51       0.1605
     25  C         -4.9350   29.0990   21.5250 C.2    51  PHE51       0.2264
     26  O         -4.2630   29.5490   22.4680 O.2    51  PHE51      -0.2867
     27  CB        -5.5840   26.5800   22.0150 C.3    51  PHE51       0.0534
     28  CG        -7.0680   27.0720   22.2330 C.ar   51  PHE51      -0.0203
     29  CD1       -8.0440   26.5740   21.3950 C.ar   51  PHE51      -0.0042
     30  CD2       -7.3060   27.9660   23.2240 C.ar   51  PHE51      -0.0042
     31  CE1       -9.3280   27.0300   21.5660 C.ar   51  PHE51      -0.0003
     32  CE2       -8.5600   28.4620   23.4190 C.ar   51  PHE51      -0.0003
     33  CZ        -9.5840   27.9870   22.5700 C.ar   51  PHE51      -0.0000
     34  N         -6.2000   24.1960   17.7190 N.3    55  ASP55      -0.1239
     35  CA        -6.6930   23.5750   18.9320 C.3    55  ASP55       0.1674
     36  C         -5.9540   22.2630   19.1040 C.2    55  ASP55       0.2266
     37  O         -6.5780   21.2060   19.0330 O.2    55  ASP55      -0.2867
     38  CB        -8.2210   23.5100   19.1280 C.3    55  ASP55       0.1410
     39  CG        -8.5870   23.2830   20.5560 C.2    55  ASP55       0.3668
     40  OD1       -9.8210   23.2080   20.9210 O.co2  55  ASP55      -0.2456
     41  OD2       -7.7510   23.0890   21.4580 O.co2  55  ASP55      -0.2456
     42  N        -14.6620   28.5340   13.8840 N.3   114  VAL114     -0.1231
     43  CA       -15.4820   28.4390   15.0970 C.3   114  VAL114      0.1692
     44  C        -15.0590   29.5060   16.0880 C.2   114  VAL114      0.2592
     45  O        -13.9470   29.6350   16.5020 O.2   114  VAL114     -0.2718
     46  CB       -15.4890   27.0390   15.7630 C.3   114  VAL114      0.0266
     47  CG1      -16.6250   26.8790   16.8180 C.3   114  VAL114      0.0020
     48  CG2      -15.5710   25.9320   14.7470 C.3   114  VAL114      0.0020
     49  N        -16.0770   30.3020   16.4230 N.am  115  ASN115     -0.1960
     50  CA       -16.0130   31.4080   17.3390 C.3   115  ASN115      0.1819
     51  C        -16.5460   30.9220   18.7000 C.2   115  ASN115      0.2621
     52  O        -17.7020   30.6500   18.9060 O.2   115  ASN115     -0.2715
     53  CB       -16.7930   32.6130   16.8460 C.3   115  ASN115      0.1195
     54  CG       -16.4980   33.8310   17.6630 C.2   115  ASN115      0.2630
     55  OD1      -16.1590   33.8070   18.8190 O.2   115  ASN115     -0.2716
     56  ND2      -16.6280   35.0030   17.0740 N.am  115  ASN115     -0.0877
     57  N        -15.5620   30.8750   19.6450 N.am  116  TYR116     -0.1974
     58  CA       -15.8560   30.4910   21.0110 C.3   116  TYR116      0.1639
     59  C        -15.9830   31.7110   21.9460 C.2   116  TYR116      0.2290
     60  O        -15.7320   31.5500   23.1570 O.2   116  TYR116     -0.2864
     61  CB       -14.7880   29.5400   21.5500 C.3   116  TYR116      0.0560
     62  CG       -14.7700   28.1870   20.8720 C.ar  116  TYR116     -0.0198
     63  CD1      -13.4930   27.7840   20.3290 C.ar  116  TYR116     -0.0009
     64  CD2      -15.8550   27.3670   20.7990 C.ar  116  TYR116     -0.0009
     65  CE1      -13.3670   26.5200   19.7530 C.ar  116  TYR116      0.0417
     66  CE2      -15.7240   26.1070   20.1750 C.ar  116  TYR116      0.0417
     67  CZ       -14.5010   25.7080   19.6550 C.ar  116  TYR116      0.1957
     68  OH       -14.3880   24.4700   19.0780 O.3   116  TYR116     -0.2866
     69  N        -13.0540   32.7650   24.5700 N.3   119  SER119     -0.1273
     70  CA       -11.9680   31.7820   24.3030 C.3   119  SER119      0.1575
     71  C        -11.3480   31.9780   22.9430 C.3   119  SER119      0.2036
     72  O        -10.2540   31.3930   22.7740 O.3   119  SER119     -0.2187
     73  CB       -12.4100   30.3460   24.4580 C.3   119  SER119      0.2036
     74  OG       -12.6750   30.2450   25.8340 O.3   119  SER119     -0.2187
     75  N        -20.9890   15.7070   21.7530 N.3   132  ALA132     -0.1231
     76  CA       -19.8890   15.6750   22.7500 C.3   132  ALA132      0.1694
     77  C        -20.3510   16.4910   23.9440 C.2   132  ALA132      0.2592
     78  O        -21.3550   17.2090   23.8470 O.2   132  ALA132     -0.2718
     79  CB       -18.5740   16.1670   22.1410 C.3   132  ALA132      0.0304
     80  N        -19.6470   16.3920   25.0520 N.am  133  GLN133     -0.1966
     81  CA       -19.9280   17.1700   26.2780 C.3   133  GLN133      0.1718
     82  C        -18.5950   17.5640   26.8660 C.2   133  GLN133      0.2458
     83  O        -17.4820   17.1420   26.5170 O.2   133  GLN133     -0.2730
     84  CB       -20.8370   16.3900   27.2450 C.3   133  GLN133      0.0407
     85  CG       -22.1090   15.9300   26.5040 C.3   133  GLN133      0.0908
     86  CD       -23.1370   15.1580   27.2270 C.2   133  GLN133      0.2608
     87  OE1      -24.2260   14.7970   26.7000 O.2   133  GLN133     -0.2717
     88  NE2      -22.9560   14.8020   28.4940 N.am  133  GLN133     -0.0878
     89  N        -18.6330   18.4670   27.8540 N.am  134  PRO134     -0.2716
     90  CA       -17.4680   18.9720   28.5780 C.3   134  PRO134      0.1536
     91  C        -16.7940   17.7430   29.1370 C.2   134  PRO134      0.2599
     92  O        -17.4460   16.8050   29.5850 O.2   134  PRO134     -0.2715
     93  CB       -17.9850   19.9620   29.6480 C.3   134  PRO134      0.0310
     94  CG       -19.3130   20.3430   29.0370 C.3   134  PRO134      0.0237
     95  CD       -19.9080   19.1250   28.3410 C.3   134  PRO134      0.0939
     96  N        -15.4320   17.7350   29.0190 N.am  135  GLY135     -0.1955
     97  CA       -14.6560   16.5450   29.4270 C.3   135  GLY135      0.1869
     98  C        -14.2260   15.7530   28.1910 C.2   135  GLY135      0.2309
     99  O        -13.2560   15.0520   28.2400 O.2   135  GLY135     -0.2863
    100  N        -13.2640   16.9710   25.2820 N.3   137  SER137     -0.1217
    101  CA       -12.2370   17.6540   24.4890 C.3   137  SER137      0.1889
    102  C        -10.8420   16.9590   24.5130 C.2   137  SER137      0.2288
    103  O        -10.4310   16.5200   25.5560 O.2   137  SER137     -0.2866
    104  CB       -12.1160   19.1080   24.9970 C.3   137  SER137      0.2089
    105  OG       -13.3980   19.7120   24.6510 O.3   137  SER137     -0.2183
    106  N        -11.0090   16.3740   19.4260 N.3   151  THR151     -0.1203
    107  CA       -12.2800   17.1070   19.8040 C.3   151  THR151      0.1994
    108  C        -11.9820   18.5190   20.3040 C.2   151  THR151      0.2619
    109  O        -11.1690   18.5630   21.2390 O.2   151  THR151     -0.2717
    110  CB       -13.0720   16.3340   20.8700 C.3   151  THR151      0.1784
    111  OG1      -13.2400   15.0060   20.3400 O.3   151  THR151     -0.2211
    112  CG2      -14.5130   16.8740   21.1500 C.3   151  THR151      0.0376
    113  N        -12.6620   19.5090   19.7720 N.am  152  SER152     -0.1937
    114  CA       -12.4030   20.8790   20.2240 C.3   152  SER152      0.2055
    115  C        -13.5790   21.4990   20.9920 C.2   152  SER152      0.2644
    116  O        -13.4870   22.0060   22.1320 O.2   152  SER152     -0.2714
    117  CB       -12.1200   21.6650   18.9500 C.3   152  SER152      0.2130
    118  OG       -11.9370   23.0700   19.3290 O.3   152  SER152     -0.2179
    119  N        -14.7060   21.4410   20.3330 N.am  153  GLY153     -0.1939
    120  CA       -15.9620   22.0250   20.8670 C.3   153  GLY153      0.2014
    121  C        -17.1430   21.7710   19.9660 C.2   153  GLY153      0.2639
    122  O        -17.1350   20.9180   19.0780 O.2   153  GLY153     -0.2714
    123  N        -18.1870   22.5540   20.2360 N.am  154  GLY154     -0.1939
    124  CA       -19.4540   22.4540   19.4470 C.3   154  GLY154      0.2014
    125  C        -20.6050   23.0350   20.2190 C.2   154  GLY154      0.2640
    126  O        -20.4560   23.9150   21.0260 O.2   154  GLY154     -0.2714
    127  N        -21.7460   22.4650   19.9530 N.am  155  SER155     -0.1935
    128  CA       -23.0330   22.8590   20.5530 C.3   155  SER155      0.2055
    129  C        -23.8360   21.6270   20.8480 C.2   155  SER155      0.2643
    130  O        -23.6140   20.5630   20.2610 O.2   155  SER155     -0.2714
    131  CB       -23.7570   23.7900   19.5710 C.3   155  SER155      0.2130
    132  OG       -23.8510   23.1210   18.3380 O.3   155  SER155     -0.2179
    133  N        -24.7580   21.7750   21.7920 N.am  156  GLY156     -0.1954
    134  CA       -25.6640   20.6370   22.1270 C.3   156  GLY156      0.1869
    135  C        -25.0330   19.6780   23.1020 C.2   156  GLY156      0.2309
    136  O        -24.1040   20.0810   23.8370 O.2   156  GLY156     -0.2863
    137  N        -23.6100   19.4610   17.3020 N.3   163  THR163     -0.1203
    138  CA       -22.6060   19.6760   16.2620 C.3   163  THR163      0.1994
    139  C        -21.2130   19.6970   16.9190 C.2   163  THR163      0.2619
    140  O        -21.1410   20.2990   17.9890 O.2   163  THR163     -0.2717
    141  CB       -22.9140   20.9630   15.4770 C.3   163  THR163      0.1784
    142  OG1      -24.1380   20.5950   14.8040 O.3   163  THR163     -0.2211
    143  CG2      -21.9380   21.4720   14.4100 C.3   163  THR163      0.0376
    144  N        -20.2810   19.0190   16.3260 N.am  164  THR164     -0.1938
    145  CA       -18.9300   19.0690   16.9850 C.3   164  THR164      0.2028
    146  C        -17.9230   19.3830   15.9390 C.2   164  THR164      0.2642
    147  O        -18.0340   19.1200   14.7270 O.2   164  THR164     -0.2714
    148  CB       -18.6830   17.8840   17.9530 C.3   164  THR164      0.1808
    149  OG1      -18.7730   16.6460   17.1910 O.3   164  THR164     -0.2208
    150  CG2      -19.7010   17.9670   19.1130 C.3   164  THR164      0.0379
    151  N        -16.8730   20.0980   16.4850 N.am  165  PHE165     -0.1973
    152  CA       -15.7430   20.5090   15.5630 C.3   165  PHE165      0.1639
    153  C        -14.4460   19.8650   16.0860 C.2   165  PHE165      0.2290
    154  O        -14.2530   19.7570   17.2790 O.2   165  PHE165     -0.2864
    155  CB       -15.5930   22.0280   15.6180 C.3   165  PHE165      0.0560
    156  CG       -16.8710   22.6400   15.0320 C.ar  165  PHE165     -0.0200
    157  CD1      -17.8530   23.0180   15.9300 C.ar  165  PHE165     -0.0042
    158  CD2      -17.0100   22.8090   13.6880 C.ar  165  PHE165     -0.0042
    159  CE1      -19.0480   23.5980   15.4600 C.ar  165  PHE165     -0.0003
    160  CE2      -18.1990   23.4020   13.1590 C.ar  165  PHE165     -0.0003
    161  CZ       -19.1850   23.7920   14.0830 C.ar  165  PHE165     -0.0000
@<TRIPOS>BOND
     1   160   158   ar
     2   160   161   ar
     3   158   156   ar
     4    42    43    1
     5   161   159   ar
     6   143   141    1
     7   147   146    2
     8    48    46    1
     9   142   141    1
    10   156   155    1
    11   156   157   ar
    12    43    46    1
    13    43    44    1
    14   159   157   ar
    15   141   138    1
    16   152   155    1
    17   152   153    1
    18   152   151    1
    19    46    47    1
    20   146   151   am
    21   146   145    1
    22   153   154    2
    23    44    49   am
    24    44    45    2
    25   138   139    1
    26   138   137    1
    27   144   139   am
    28   144   145    1
    29    49    50    1
    30    53    50    1
    31    53    54    1
    32   139   140    2
    33   145   148    1
    34    56    54   am
    35   149   148    1
    36    50    51    1
    37    54    55    2
    38    34    35    1
    39   148   150    1
    40   132   131    1
    41    51    52    2
    42    51    57   am
    43    35    36    1
    44    35    38    1
    45   117   118    1
    46   117   114    1
    47    37    36    2
    48   122   121    2
    49    68    67    1
    50    38    39    1
    51   106   107    1
    52   124   125    1
    53   124   123    1
    54   131   128    1
    55    57    58    1
    56    67    65   ar
    57    67    66   ar
    58    65    63   ar
    59   113   114    1
    60   113   108   am
    61   107   108    1
    62   107   110    1
    63   127   125   am
    64   127   128    1
    65   121   123   am
    66   121   120    1
    67    66    64   ar
    68   125   126    2
    69   114   115    1
    70   130   129    2
    71   108   109    2
    72    63    62   ar
    73   119   120    1
    74   119   115   am
    75   111   110    1
    76   128   129    1
    77    39    40   ar
    78    39    41   ar
    79    64    62   ar
    80   129   133   am
    81   110   112    1
    82    62    61    1
    83   115   116    2
    84    58    61    1
    85    58    59    1
    86    23    24    1
    87    24    25    1
    88    24    27    1
    89    29    31   ar
    90    29    28   ar
    91    25    26    2
    92    31    33   ar
    93    75    76    1
    94   133   134    1
    95    59    60    2
    96    27    28    1
    97   134   135    1
    98    79    76    1
    99    28    30   ar
   100    33    32   ar
   101    76    77    1
   102    72    71    1
   103    71    70    1
   104   135   136    2
   105    30    32   ar
   106    13    15   ar
   107    13    12   ar
   108    15    16   ar
   109    78    77    2
   110    77    80   am
   111     7     8    1
   112    70    73    1
   113    70    69    1
   114    73    74    1
   115   101   102    1
   116   101   104    1
   117   101   100    1
   118   102   103    2
   119    11    12    1
   120    11     8    1
   121    12    14   ar
   122   105   104    1
   123     8     9    1
   124    80    81    1
   125    16    14   ar
   126    17     9   am
   127    17    18    1
   128    81    82    1
   129    81    84    1
   130     9    10    2
   131    85    86    1
   132    85    84    1
   133    83    82    2
   134    87    86    2
   135    82    89   am
   136    22    21    1
   137    22     6    1
   138    21    18    1
   139    86    88   am
   140    18    19    1
   141    89    95    1
   142    89    90    1
   143    19    20    2
   144    98    99    2
   145    98    97    1
   146    95    94    1
   147     5     6    1
   148     5     2    1
   149    90    91    1
   150    90    93    1
   151     3     2    1
   152     3     4    2
   153    96    91   am
   154    96    97    1
   155    94    93    1
   156     2     1    1
   157    91    92    2
