@<TRIPOS>MOLECULE
tmp/1sgjA00.pdb
 100 91 0 0 0
SMALL
GASTEIGER

@<TRIPOS>ATOM
      1  N          2.7270   23.3110   -5.6970 N.3    10  PHE10      -0.1241
      2  CA         3.2170   22.2170   -4.8580 C.3    10  PHE10       0.1605
      3  C          2.5950   20.8430   -5.1480 C.2    10  PHE10       0.2264
      4  O          1.4600   20.7390   -5.6050 O.2    10  PHE10      -0.2867
      5  CB         2.9560   22.5310   -3.3780 C.3    10  PHE10       0.0534
      6  CG         3.8490   23.6030   -2.8000 C.ar   10  PHE10      -0.0203
      7  CD1        4.7900   23.2820   -1.8270 C.ar   10  PHE10      -0.0042
      8  CD2        3.7230   24.9310   -3.1950 C.ar   10  PHE10      -0.0042
      9  CE1        5.5890   24.2630   -1.2480 C.ar   10  PHE10      -0.0003
     10  CE2        4.5240   25.9280   -2.6150 C.ar   10  PHE10      -0.0003
     11  CZ         5.4530   25.5920   -1.6450 C.ar   10  PHE10      -0.0000
     12  N          7.3360   18.5930   -2.4220 N.3    33  ASP33      -0.1239
     13  CA         7.3970   18.7630   -0.9710 C.3    33  ASP33       0.1674
     14  C          7.5980   17.5520   -0.0660 C.2    33  ASP33       0.2266
     15  O          6.7680   16.6520   -0.0250 O.2    33  ASP33      -0.2867
     16  CB         6.1300   19.5130   -0.5550 C.3    33  ASP33       0.1410
     17  CG         6.1700   20.0090    0.8700 C.2    33  ASP33       0.3668
     18  OD1        7.2590   20.3440    1.3830 O.co2  33  ASP33      -0.2456
     19  OD2        5.0820   20.0970    1.4660 O.co2  33  ASP33      -0.2456
     20  N          5.5270   19.4540    4.8890 N.3    36  ASP36      -0.1225
     21  CA         4.1020   19.3610    5.2100 C.3    36  ASP36       0.1805
     22  C          3.3260   18.2760    4.4730 C.2    36  ASP36       0.2597
     23  O          2.5160   17.5750    5.0740 O.2    36  ASP36      -0.2718
     24  CB         3.3940   20.7070    4.9680 C.3    36  ASP36       0.1424
     25  CG         3.7560   21.7640    6.0040 C.2    36  ASP36       0.3668
     26  OD1        4.1490   21.3920    7.1310 O.co2  36  ASP36      -0.2456
     27  OD2        3.6290   22.9720    5.6970 O.co2  36  ASP36      -0.2456
     28  N          3.5640   18.1430    3.1720 N.am   37  ALA37      -0.1979
     29  CA         2.8520   17.1530    2.3660 C.3    37  ALA37       0.1597
     30  C          3.0460   15.6980    2.7930 C.2    37  ALA37       0.2287
     31  O          2.2370   14.8370    2.4400 O.2    37  ALA37      -0.2864
     32  CB         3.2340   17.3190    0.9050 C.3    37  ALA37       0.0319
     33  N         11.2070   20.8600   -1.6370 N.3    71  ARG71      -0.1245
     34  CA        11.1610   21.4760   -0.3220 C.3    71  ARG71       0.1563
     35  C         11.5720   20.4070    0.6830 C.2    71  ARG71       0.2260
     36  O         10.9710   19.3380    0.7570 O.2    71  ARG71      -0.2867
     37  CB         9.7690   22.0140    0.0450 C.3    71  ARG71       0.0307
     38  CG         9.7560   22.5870    1.4780 C.3    71  ARG71       0.0489
     39  CD         8.5960   23.5350    1.7800 C.3    71  ARG71       0.2205
     40  NE         7.3110   22.8540    1.8750 N.pl3  71  ARG71      -0.0865
     41  CZ         6.1740   23.4530    2.2200 C.cat  71  ARG71       0.5346
     42  NH1        6.1690   24.7460    2.5080 N.pl3  71  ARG71       0.1354
     43  NH2        5.0420   22.7670    2.2590 N.pl3  71  ARG71       0.1354
     44  N          7.6840   31.8170    7.8780 N.3   126  GLU126     -0.1245
     45  CA         6.3410   31.4760    8.3030 C.3   126  GLU126      0.1567
     46  C          6.1710   31.1980    9.7900 C.2   126  GLU126      0.2260
     47  O          5.3790   30.3480   10.1870 O.2   126  GLU126     -0.2867
     48  CB         5.8520   30.2820    7.4700 C.3   126  GLU126      0.0388
     49  CG         6.6600   28.9770    7.6720 C.3   126  GLU126      0.1160
     50  CD         6.5110   27.9980    6.5040 C.2   126  GLU126      0.3649
     51  OE1        5.3750   27.7660    6.0520 O.co2 126  GLU126     -0.2457
     52  OE2        7.5350   27.4480    6.0380 O.co2 126  GLU126     -0.2457
     53  N          8.9580   33.1290    0.6320 N.3   147  TYR147     -0.1241
     54  CA         7.5040   33.1990    0.6890 C.3   147  TYR147      0.1605
     55  C          7.0780   33.4840    2.1210 C.2   147  TYR147      0.2264
     56  O          7.8050   33.1780    3.0630 O.2   147  TYR147     -0.2867
     57  CB         6.8590   31.8900    0.2070 C.3   147  TYR147      0.0534
     58  CG         7.1420   30.6630    1.0620 C.ar  147  TYR147     -0.0201
     59  CD1        6.3800   30.3740    2.1990 C.ar  147  TYR147     -0.0009
     60  CD2        8.1780   29.7860    0.7250 C.ar  147  TYR147     -0.0009
     61  CE1        6.6480   29.2250    2.9810 C.ar  147  TYR147      0.0417
     62  CE2        8.4540   28.6450    1.4910 C.ar  147  TYR147      0.0417
     63  CZ         7.6900   28.3700    2.6130 C.ar  147  TYR147      0.1957
     64  OH         7.9760   27.2400    3.3590 O.3   147  TYR147     -0.2866
     65  N          4.4830   32.5010    4.8340 N.3   149  GLY149     -0.1225
     66  CA         3.5330   31.4400    5.1070 C.3   149  GLY149      0.1811
     67  C          2.5850   31.8640    6.2090 C.2   149  GLY149      0.2280
     68  O          2.8840   31.6950    7.3860 O.2   149  GLY149     -0.2866
     69  N         -0.3220   30.6160    7.1150 N.3   151  GLU151     -0.1245
     70  CA        -0.8600   29.4960    7.8760 C.3   151  GLU151      0.1567
     71  C          0.0060   29.1440    9.0800 C.2   151  GLU151      0.2260
     72  O         -0.4760   29.1400   10.2160 O.2   151  GLU151     -0.2867
     73  CB        -1.0290   28.2730    6.9660 C.3   151  GLU151      0.0388
     74  CG        -2.0340   28.4870    5.8360 C.3   151  GLU151      0.1160
     75  CD        -3.3830   28.9810    6.3370 C.2   151  GLU151      0.3649
     76  OE1       -3.9870   28.3120    7.2050 O.co2 151  GLU151     -0.2457
     77  OE2       -3.8410   30.0390    5.8630 O.co2 151  GLU151     -0.2457
     78  N         -0.5510   31.2710    0.4840 N.3   190  VAL190     -0.1245
     79  CA        -1.4100   30.2830   -0.1330 C.3   190  VAL190      0.1561
     80  C         -2.8640   30.6220    0.1880 C.2   190  VAL190      0.2260
     81  O         -3.1550   31.3410    1.1480 O.2   190  VAL190     -0.2867
     82  CB        -1.0780   28.8680    0.3920 C.3   190  VAL190      0.0252
     83  CG1       -2.3000   27.9680    0.3260 C.3   190  VAL190      0.0019
     84  CG2        0.0380   28.2740   -0.4390 C.3   190  VAL190      0.0019
     85  N          2.1580   31.5010   -4.0570 N.3   216  LEU216     -0.1245
     86  CA         2.1880   30.0490   -3.9050 C.3   216  LEU216      0.1561
     87  C          0.8230   29.4950   -4.2990 C.2   216  LEU216      0.2260
     88  O         -0.2120   30.0780   -3.9660 O.2   216  LEU216     -0.2867
     89  CB         2.5090   29.6600   -2.4510 C.3   216  LEU216      0.0270
     90  CG         3.7980   30.1850   -1.8080 C.3   216  LEU216      0.0019
     91  CD1        3.9610   29.5900   -0.4050 C.3   216  LEU216      0.0001
     92  CD2        4.9870   29.8240   -2.6720 C.3   216  LEU216      0.0001
     93  N         -1.6160   25.8450   -4.5650 N.3   218  ILE218     -0.1245
     94  CA        -1.7540   24.4690   -4.1110 C.3   218  ILE218      0.1561
     95  C         -2.7110   23.6620   -4.9770 C.2   218  ILE218      0.2260
     96  O         -2.9710   22.4990   -4.6880 O.2   218  ILE218     -0.2867
     97  CB        -2.2190   24.3910   -2.6420 C.3   218  ILE218      0.0252
     98  CG1       -3.5750   25.0800   -2.4790 C.3   218  ILE218      0.0019
     99  CG2       -1.1600   25.0120   -1.7390 C.3   218  ILE218      0.0019
    100  CD1       -4.1710   24.9350   -1.0850 C.3   218  ILE218      0.0001
@<TRIPOS>BOND
     1     1     2    1
     2     4     3    2
     3     3     2    1
     4    95    96    2
     5    95    94    1
     6     2     5    1
     7    93    94    1
     8    87    88    2
     9    87    86    1
    10    94    97    1
    11    85    86    1
    12    86    89    1
    13     5     6    1
    14     8     6   ar
    15     8    10   ar
    16     6     7   ar
    17    92    90    1
    18    97    98    1
    19    97    99    1
    20    10    11   ar
    21    98   100    1
    22    89    90    1
    23    12    13    1
    24     7     9   ar
    25    90    91    1
    26    11     9   ar
    27    33    34    1
    28    13    16    1
    29    13    14    1
    30    16    17    1
    31    84    82    1
    32    34    37    1
    33    34    35    1
    34    79    80    1
    35    79    82    1
    36    79    78    1
    37    14    15    2
    38    37    38    1
    39    80    81    2
    40    57    54    1
    41    57    58    1
    42    83    82    1
    43    53    54    1
    44    35    36    2
    45    54    55    1
    46    60    58   ar
    47    60    62   ar
    48    17    18   ar
    49    17    19   ar
    50    32    29    1
    51    58    59   ar
    52    38    39    1
    53    62    63   ar
    54    39    40    1
    55    40    41    2
    56    55    56    2
    57    59    61   ar
    58    41    43    1
    59    41    42    1
    60    29    30    1
    61    29    28    1
    62    31    30    2
    63    63    61   ar
    64    63    64    1
    65    28    22   am
    66    22    23    2
    67    22    21    1
    68    65    66    1
    69    20    21    1
    70    24    21    1
    71    24    25    1
    72    66    67    1
    73    27    25   ar
    74    74    75    1
    75    74    73    1
    76    77    75   ar
    77    25    26   ar
    78    52    50   ar
    79    51    50   ar
    80    67    68    2
    81    75    76   ar
    82    50    49    1
    83    73    70    1
    84    69    70    1
    85    48    49    1
    86    48    45    1
    87    70    71    1
    88    44    45    1
    89    45    46    1
    90    71    72    2
    91    46    47    2
