@<TRIPOS>MOLECULE
tmp/1sh9A00.pdb
 99 93 0 0 0
SMALL
GASTEIGER

@<TRIPOS>ATOM
      1  N         24.9410   -8.9510   13.4990 N.3    23  LEU23      -0.1245
      2  CA        25.5160   -8.0150   12.5530 C.3    23  LEU23       0.1561
      3  C         26.1720   -6.8600   13.3080 C.2    23  LEU23       0.2260
      4  O         25.5410   -6.2400   14.1650 O.2    23  LEU23      -0.2867
      5  CB        24.3900   -7.4880   11.6610 C.3    23  LEU23       0.0270
      6  CG        24.6280   -7.0190   10.2300 C.3    23  LEU23       0.0019
      7  CD1       25.1990   -8.1470    9.3970 C.3    23  LEU23       0.0001
      8  CD2       23.3000   -6.5660    9.6470 C.3    23  LEU23       0.0001
      9  N         26.7310   -3.5010   13.7000 N.3    25  ASP25      -0.1239
     10  CA        26.0160   -2.3660   13.1450 C.3    25  ASP25       0.1674
     11  C         26.3730   -1.0070   13.7450 C.2    25  ASP25       0.2266
     12  O         25.9480   -0.6700   14.8520 O.2    25  ASP25      -0.2867
     13  CB        24.5240   -2.6520   13.3010 C.3    25  ASP25       0.1410
     14  CG        23.6580   -1.5710   12.7300 C.2    25  ASP25       0.3668
     15  OD1       24.1440   -0.7880   11.8890 O.co2  25  ASP25      -0.2456
     16  OD2       22.4790   -1.5200   13.1220 O.co2  25  ASP25      -0.2456
     17  N         25.3700    1.7730   12.6610 N.3    27  GLY27      -0.1210
     18  CA        24.2170    2.6510   12.5690 C.3    27  GLY27       0.1956
     19  C         23.1960    2.4150   13.6720 C.2    27  GLY27       0.2612
     20  O         22.0920    2.9550   13.6310 O.2    27  GLY27      -0.2717
     21  N         23.5600    1.6070   14.6630 N.am   28  ALA28      -0.1965
     22  CA        22.6680    1.3060   15.7780 C.3    28  ALA28       0.1728
     23  C         23.3360    1.6960   17.0870 C.2    28  ALA28       0.2616
     24  O         24.5040    1.3790   17.3060 O.2    28  ALA28      -0.2715
     25  CB        22.3350   -0.1790   15.7930 C.3    28  ALA28       0.0334
     26  N         22.6050    2.3880   17.9560 N.am   29  ASP29      -0.1957
     27  CA        23.1660    2.7900   19.2410 C.3    29  ASP29       0.1840
     28  C         23.0900    1.6190   20.2040 C.2    29  ASP29       0.2622
     29  O         24.0040    1.3910   20.9940 O.2    29  ASP29      -0.2715
     30  CB        22.3890    3.9640   19.8520 C.3    29  ASP29       0.1450
     31  CG        22.3140    5.1680   18.9350 C.2    29  ASP29       0.3671
     32  OD1       23.2830    5.4340   18.1940 O.co2  29  ASP29      -0.2456
     33  OD2       21.2810    5.8630   18.9740 O.co2  29  ASP29      -0.2456
     34  N         21.9870    0.8790   20.1200 N.am   30  ASP30      -0.1971
     35  CA        21.7300   -0.2630   20.9870 C.3    30  ASP30       0.1709
     36  C         21.8370   -1.6050   20.2800 C.2    30  ASP30       0.2293
     37  O         21.7830   -1.6870   19.0520 O.2    30  ASP30      -0.2864
     38  CB        20.3320   -0.1450   21.5800 C.3    30  ASP30       0.1436
     39  CG        20.0760    1.2080   22.1810 C.2    30  ASP30       0.3671
     40  OD1       20.7110    1.5220   23.2070 O.co2  30  ASP30      -0.2456
     41  OD2       19.2470    1.9590   21.6230 O.co2  30  ASP30      -0.2456
     42  N         20.2910   -5.2020   19.5720 N.3    32  ILE32      -0.1245
     43  CA        19.0030   -5.8270   19.4410 C.3    32  ILE32       0.1561
     44  C         19.1720   -7.2570   19.0160 C.2    32  ILE32       0.2260
     45  O         19.9010   -7.6050   18.1000 O.2    32  ILE32      -0.2867
     46  CB        18.0730   -5.1510   18.4380 C.3    32  ILE32       0.0252
     47  CG1       17.8150   -3.7130   18.8680 C.3    32  ILE32       0.0019
     48  CG2       16.7630   -5.9240   18.3080 C.3    32  ILE32       0.0019
     49  CD1       18.9150   -2.7550   18.4670 C.3    32  ILE32       0.0001
     50  N         11.9070    1.2290   20.5740 N.3    47  ILE47      -0.1231
     51  CA        12.9340    1.7650   19.6970 C.3    47  ILE47       0.1692
     52  C         12.3620    1.9510   18.3010 C.2    47  ILE47       0.2593
     53  O         11.3640    1.3270   17.9400 O.2    47  ILE47      -0.2718
     54  CB        14.1590    0.8250   19.6230 C.3    47  ILE47       0.0266
     55  CG1       13.7880   -0.4620   18.8830 C.3    47  ILE47       0.0019
     56  CG2       14.6480    0.5020   21.0300 C.3    47  ILE47       0.0020
     57  CD1       14.9520   -1.4000   18.6590 C.3    47  ILE47       0.0001
     58  N         12.9980    2.8140   17.5180 N.am   48  GLY48      -0.1942
     59  CA        12.5240    3.0600   16.1710 C.3    48  GLY48       0.2014
     60  C         13.5980    2.8880   15.1180 C.2    48  GLY48       0.2639
     61  O         14.7890    2.8740   15.4270 O.2    48  GLY48      -0.2714
     62  N         13.1600    2.7500   13.8710 N.am   49  GLY49      -0.1939
     63  CA        14.0670    2.5880   12.7500 C.3    49  GLY49       0.2014
     64  C         13.2620    2.8090   11.4840 C.2    49  GLY49       0.2638
     65  O         12.2840    3.5530   11.5080 O.2    49  GLY49      -0.2714
     66  N         13.6620    2.1870   10.3800 N.am   50  ILE50      -0.1977
     67  CA        12.9070    2.3220    9.1410 C.3    50  ILE50       0.1596
     68  C         11.5980    1.5720    9.3400 C.2    50  ILE50       0.2287
     69  O         11.5810    0.4910    9.9280 O.2    50  ILE50      -0.2864
     70  CB        13.6430    1.6890    7.9350 C.3    50  ILE50       0.0276
     71  CG1       14.8120    2.5730    7.5050 C.3    50  ILE50       0.0022
     72  CG2       12.6760    1.4760    6.7770 C.3    50  ILE50       0.0022
     73  CD1       16.0340    2.3980    8.3540 C.3    50  ILE50       0.0001
     74  N         12.6320   -8.4510   15.6810 N.3    80  THR80      -0.1204
     75  CA        13.6150   -7.8460   14.7960 C.3    80  THR80       0.1979
     76  C         14.0630   -8.8700   13.7630 C.2    80  THR80       0.2460
     77  O         14.4270   -9.9930   14.1020 O.2    80  THR80      -0.2732
     78  CB        14.8470   -7.3340   15.5830 C.3    80  THR80       0.1783
     79  OG1       15.7900   -6.7550   14.6730 O.3    80  THR80      -0.2211
     80  CG2       15.5150   -8.4720   16.3380 C.3    80  THR80       0.0376
     81  N         14.0300   -8.4960   12.4790 N.am   81  PRO81      -0.2717
     82  CA        14.4370   -9.4050   11.4070 C.3    81  PRO81       0.1535
     83  C         15.9350   -9.7120   11.3490 C.2    81  PRO81       0.2598
     84  O         16.3960  -10.3900   10.4290 O.2    81  PRO81      -0.2715
     85  CB        13.9330   -8.6960   10.1540 C.3    81  PRO81       0.0310
     86  CG        14.0410   -7.2540   10.5230 C.3    81  PRO81       0.0237
     87  CD        13.5140   -7.2300   11.9300 C.3    81  PRO81       0.0939
     88  N         16.6940   -9.2190   12.3230 N.am   82  ALA82      -0.1978
     89  CA        18.1320   -9.4730   12.3530 C.3    82  ALA82       0.1597
     90  C         18.7700   -9.0400   13.6640 C.2    82  ALA82       0.2287
     91  O         18.4690   -7.9700   14.1830 O.2    82  ALA82      -0.2864
     92  CB        18.8120   -8.7620   11.1870 C.3    82  ALA82       0.0319
     93  N         21.3940   -7.4450   15.9950 N.3    84  VAL84      -0.1245
     94  CA        22.2840   -6.3140   15.8100 C.3    84  VAL84       0.1561
     95  C         23.1320   -5.9620   17.0310 C.2    84  VAL84       0.2260
     96  O         22.6180   -5.8290   18.1420 O.2    84  VAL84      -0.2867
     97  CB        21.4500   -5.0670   15.3950 C.3    84  VAL84       0.0252
     98  CG1       22.2260   -3.7950   15.6370 C.3    84  VAL84       0.0019
     99  CG2       21.0610   -5.1760   13.9330 C.3    84  VAL84       0.0019
@<TRIPOS>BOND
     1    72    70    1
     2    71    70    1
     3    71    73    1
     4    70    67    1
     5    67    68    1
     6    67    66    1
     7    68    69    2
     8     7     6    1
     9     8     6    1
    10    85    86    1
    11    85    82    1
    12     6     5    1
    13    66    64   am
    14    84    83    2
    15    86    87    1
    16    92    89    1
    17    83    82    1
    18    83    88   am
    19    82    81    1
    20    64    65    2
    21    64    63    1
    22     5     2    1
    23    15    14   ar
    24    87    81    1
    25    88    89    1
    26    89    90    1
    27    81    76   am
    28     2     3    1
    29     2     1    1
    30    18    17    1
    31    18    19    1
    32    14    16   ar
    33    14    13    1
    34    63    62    1
    35    10    13    1
    36    10     9    1
    37    10    11    1
    38     3     4    2
    39    20    19    2
    40    90    91    2
    41    19    21   am
    42    11    12    2
    43    76    77    2
    44    76    75    1
    45    62    60   am
    46    99    97    1
    47    21    22    1
    48    79    78    1
    49    75    78    1
    50    75    74    1
    51    60    61    2
    52    60    59    1
    53    97    98    1
    54    97    94    1
    55    78    80    1
    56    22    25    1
    57    22    23    1
    58    94    93    1
    59    94    95    1
    60    59    58    1
    61    95    96    2
    62    23    24    2
    63    23    26   am
    64    58    52   am
    65    53    52    2
    66    26    27    1
    67    45    44    2
    68    32    31   ar
    69    52    51    1
    70    48    46    1
    71    46    47    1
    72    46    43    1
    73    49    47    1
    74    57    55    1
    75    55    54    1
    76    31    33   ar
    77    31    30    1
    78    44    43    1
    79    37    36    2
    80    27    30    1
    81    27    28    1
    82    43    42    1
    83    54    51    1
    84    54    56    1
    85    51    50    1
    86    34    28   am
    87    34    35    1
    88    28    29    2
    89    36    35    1
    90    35    38    1
    91    38    39    1
    92    41    39   ar
    93    39    40   ar
