@<TRIPOS>MOLECULE
tmp/1shaA00.pdb
 146 141 0 0 0
SMALL
GASTEIGER

@<TRIPOS>ATOM
      1  N         43.0730   29.4530   -7.5350 N.3    11  ARG11      -0.1245
      2  CA        43.6960   30.6990   -7.0840 C.3    11  ARG11       0.1563
      3  C         42.7600   31.8730   -7.3420 C.2    11  ARG11       0.2260
      4  O         42.5520   32.6730   -6.4330 O.2    11  ARG11      -0.2867
      5  CB        44.9890   30.9760   -7.8250 C.3    11  ARG11       0.0307
      6  CG        45.6420   32.2420   -7.3160 C.3    11  ARG11       0.0489
      7  CD        46.9270   32.4530   -8.0700 C.3    11  ARG11       0.2205
      8  NE        47.9720   31.6760   -7.4550 N.pl3  11  ARG11      -0.0865
      9  CZ        49.1850   32.1880   -7.1800 C.cat  11  ARG11       0.5346
     10  NH1       49.5700   33.4420   -7.4430 N.pl3  11  ARG11       0.1354
     11  NH2       50.0540   31.4190   -6.5740 N.pl3  11  ARG11       0.1354
     12  N         43.6430   25.9270    0.8880 N.3    31  ARG31      -0.1245
     13  CA        43.0970   25.1990   -0.2590 C.3    31  ARG31       0.1563
     14  C         44.1660   24.2620   -0.8420 C.2    31  ARG31       0.2260
     15  O         45.3450   24.3010   -0.4660 O.2    31  ARG31      -0.2867
     16  CB        42.6280   26.2210   -1.3190 C.3    31  ARG31       0.0307
     17  CG        43.7860   27.1320   -1.8060 C.3    31  ARG31       0.0489
     18  CD        43.2850   28.1180   -2.8210 C.3    31  ARG31       0.2205
     19  NE        44.3530   29.0270   -3.2050 N.pl3  31  ARG31      -0.0865
     20  CZ        45.2300   28.8030   -4.1950 C.cat  31  ARG31       0.5346
     21  NH1       45.1600   27.6550   -4.8670 N.pl3  31  ARG31       0.1354
     22  NH2       46.1820   29.7130   -4.4990 N.pl3  31  ARG31       0.1354
     23  N         46.7110   23.1780   -3.7600 N.3    33  SER33      -0.1202
     24  CA        47.3890   23.8800   -4.8360 C.3    33  SER33       0.2020
     25  C         46.8920   23.4140   -6.2210 C.2    33  SER33       0.2619
     26  O         46.8320   22.2160   -6.5110 O.2    33  SER33      -0.2717
     27  CB        48.8860   23.6290   -4.7510 C.3    33  SER33       0.2103
     28  OG        49.5810   24.2070   -5.8530 O.3    33  SER33      -0.2182
     29  N         46.5350   24.3590   -7.0980 N.am   34  GLU34      -0.1965
     30  CA        46.2390   24.0620   -8.4910 C.3    34  GLU34       0.1733
     31  C         47.4510   23.5130   -9.2200 C.2    34  GLU34       0.2617
     32  O         47.3700   22.4480   -9.8350 O.2    34  GLU34      -0.2715
     33  CB        45.8470   25.2560   -9.2860 C.3    34  GLU34       0.0429
     34  CG        44.6070   25.9000   -8.8150 C.3    34  GLU34       0.1163
     35  CD        44.0850   26.8910   -9.8370 C.2    34  GLU34       0.3649
     36  OE1       43.3360   26.4440  -10.7060 O.co2  34  GLU34      -0.2457
     37  OE2       44.3880   28.0890   -9.7550 O.co2  34  GLU34      -0.2457
     38  N         48.5810   24.2300   -9.1310 N.am   35  THR35      -0.1951
     39  CA        49.7870   23.8690   -9.8970 C.3    35  THR35       0.1897
     40  C         50.7870   22.8380   -9.3700 C.2    35  THR35       0.2313
     41  O         51.5510   22.2720  -10.1720 O.2    35  THR35      -0.2863
     42  CB        50.5470   25.1490  -10.2230 C.3    35  THR35       0.1794
     43  OG1       50.6950   25.8420   -9.0080 O.3    35  THR35      -0.2208
     44  CG2       49.8240   26.0120  -11.2280 C.3    35  THR35       0.0378
     45  N         47.8030   25.2550   -0.1810 N.3    41  CYS41      -0.1235
     46  CA        48.1310   26.6580   -0.2420 C.3    41  CYS41       0.1677
     47  C         47.4170   27.4030    0.8790 C.2    41  CYS41       0.2270
     48  O         46.2430   27.1450    1.1820 O.2    41  CYS41      -0.2867
     49  CB        47.7150   27.2020   -1.6040 C.3    41  CYS41       0.0956
     50  SG        48.0490   28.9860   -1.7150 S.3    41  CYS41      -0.0801
     51  N         48.3050   37.2380   -0.6430 N.3    56  LYS56      -0.1231
     52  CA        49.5720   36.5180   -0.7550 C.3    56  LYS56       0.1693
     53  C         49.2520   35.0160   -0.7110 C.2    56  LYS56       0.2592
     54  O         48.3420   34.6010    0.0170 O.2    56  LYS56      -0.2718
     55  CB        50.5060   36.8290    0.4060 C.3    56  LYS56       0.0285
     56  CG        50.8860   38.2950    0.6030 C.3    56  LYS56       0.0035
     57  CD        52.1220   38.6920   -0.1900 C.3    56  LYS56       0.0206
     58  CE        52.6590   40.0610    0.2810 C.3    56  LYS56       0.1093
     59  NZ        51.7730   41.2040    0.0400 N.3    56  LYS56      -0.1314
     60  N         49.9700   34.2080   -1.4720 N.am   57  HIS57      -0.1962
     61  CA        49.7680   32.7710   -1.4710 C.3    57  HIS57       0.1787
     62  C         51.0210   32.1040   -0.9950 C.2    57  HIS57       0.2620
     63  O         52.1050   32.3920   -1.4570 O.2    57  HIS57      -0.2715
     64  CB        49.4150   32.2980   -2.8670 C.3    57  HIS57       0.0785
     65  CG        48.0690   32.8570   -3.3680 C.ar   57  HIS57       0.0821
     66  ND1       46.8410   32.4470   -3.0430 N.ar   57  HIS57      -0.2267
     67  CD2       47.9550   33.9240   -4.2540 C.ar   57  HIS57       0.1154
     68  CE1       46.0150   33.2250   -3.7000 C.ar   57  HIS57       0.1986
     69  NE2       46.6800   34.1140   -4.4290 N.ar   57  HIS57      -0.2212
     70  N         50.8990   31.1980   -0.0270 N.am   58  TYR58      -0.1960
     71  CA        52.0230   30.4870    0.5710 C.3    58  TYR58       0.1771
     72  C         51.7950   29.0000    0.3080 C.2    58  TYR58       0.2619
     73  O         50.8260   28.4060    0.8150 O.2    58  TYR58      -0.2715
     74  CB        52.0810   30.7030    2.0880 C.3    58  TYR58       0.0574
     75  CG        52.3170   32.1660    2.4000 C.ar   58  TYR58      -0.0198
     76  CD1       53.6210   32.6620    2.3710 C.ar   58  TYR58      -0.0009
     77  CD2       51.2240   32.9930    2.6760 C.ar   58  TYR58      -0.0009
     78  CE1       53.8380   34.0010    2.6370 C.ar   58  TYR58       0.0417
     79  CE2       51.4380   34.3320    2.9340 C.ar   58  TYR58       0.0417
     80  CZ        52.7310   34.8170    2.9140 C.ar   58  TYR58       0.1957
     81  OH        52.9390   36.1380    3.2280 O.3    58  TYR58      -0.2866
     82  N         52.7090   28.4080   -0.4770 N.am   59  LYS59      -0.1977
     83  CA        52.6050   26.9770   -0.7300 C.3    59  LYS59       0.1596
     84  C         52.9760   26.1820    0.5330 C.2    59  LYS59       0.2287
     85  O         53.9660   26.4050    1.2270 O.2    59  LYS59      -0.2864
     86  CB        53.5300   26.6540   -1.8900 C.3    59  LYS59       0.0298
     87  CG        53.3950   25.2480   -2.4050 C.3    59  LYS59       0.0038
     88  CD        54.2250   25.1630   -3.7040 C.3    59  LYS59       0.0206
     89  CE        53.5530   25.8770   -4.9040 C.3    59  LYS59       0.1093
     90  NZ        54.3860   25.7560   -6.1010 N.3    59  LYS59      -0.1314
     91  N         54.0220   22.6310    1.7390 N.3    61  ARG61      -0.1245
     92  CA        54.5430   21.3850    1.2280 C.3    61  ARG61       0.1563
     93  C         54.5260   20.3340    2.2980 C.2    61  ARG61       0.2260
     94  O         54.5810   20.5990    3.4900 O.2    61  ARG61      -0.2867
     95  CB        55.9390   21.5700    0.7420 C.3    61  ARG61       0.0307
     96  CG        56.0370   22.5490   -0.4340 C.3    61  ARG61       0.0489
     97  CD        57.4390   22.4200   -1.0740 C.3    61  ARG61       0.2205
     98  NE        57.5650   23.1700   -2.3460 N.pl3  61  ARG61      -0.0865
     99  CZ        57.8800   24.4710   -2.3020 C.cat  61  ARG61       0.5346
    100  NH1       58.0790   25.0800   -1.1300 N.pl3  61  ARG61       0.1354
    101  NH2       58.0020   25.1790   -3.4100 N.pl3  61  ARG61       0.1354
    102  N         54.9780   22.1580    5.8850 N.3    69  TYR69      -0.1227
    103  CA        55.7670   23.3490    6.1490 C.3    69  TYR69       0.1736
    104  C         55.5670   24.3270    5.0180 C.2    69  TYR69       0.2595
    105  O         55.2780   23.9600    3.8740 O.2    69  TYR69      -0.2718
    106  CB        57.2730   22.9940    6.2890 C.3    69  TYR69       0.0548
    107  CG        57.9190   22.5210    4.9990 C.ar   69  TYR69      -0.0200
    108  CD1       57.7610   21.1920    4.5910 C.ar   69  TYR69      -0.0009
    109  CD2       58.6740   23.3980    4.2350 C.ar   69  TYR69      -0.0009
    110  CE1       58.3680   20.7510    3.4270 C.ar   69  TYR69       0.0417
    111  CE2       59.2840   22.9670    3.0640 C.ar   69  TYR69       0.0417
    112  CZ        59.1270   21.6470    2.6740 C.ar   69  TYR69       0.1957
    113  OH        59.7430   21.2210    1.5120 O.3    69  TYR69      -0.2866
    114  N         55.7410   25.5850    5.4330 N.am   70  ILE70      -0.1966
    115  CA        55.8250   26.6970    4.4700 C.3    70  ILE70       0.1727
    116  C         57.2840   27.0950    4.3320 C.2    70  ILE70       0.2617
    117  O         57.7720   27.2220    3.2330 O.2    70  ILE70      -0.2715
    118  CB        54.9500   27.8930    4.9340 C.3    70  ILE70       0.0290
    119  CG1       53.4890   27.4660    4.8480 C.3    70  ILE70       0.0022
    120  CG2       55.2220   29.1300    4.0580 C.3    70  ILE70       0.0023
    121  CD1       52.4550   28.4390    5.4210 C.3    70  ILE70       0.0001
    122  N         58.0020   27.3360    5.4070 N.am   71  THR71      -0.1937
    123  CA        59.4360   27.4970    5.3630 C.3    71  THR71       0.2028
    124  C         60.0860   26.2430    5.9490 C.2    71  THR71       0.2642
    125  O         59.5850   25.6590    6.9300 O.2    71  THR71      -0.2714
    126  CB        59.8950   28.7270    6.1670 C.3    71  THR71       0.1808
    127  OG1       59.3620   28.6650    7.4790 O.3    71  THR71      -0.2208
    128  CG2       59.4030   29.9810    5.5120 C.3    71  THR71       0.0379
    129  N         61.2220   25.8690    5.3320 N.am   72  SER72      -0.1949
    130  CA        61.9200   24.6610    5.6950 C.3    72  SER72       0.1924
    131  C         62.1530   24.4380    7.1650 C.2    72  SER72       0.2314
    132  O         62.1080   23.2850    7.5920 O.2    72  SER72      -0.2863
    133  CB        63.3000   24.5840    5.0540 C.3    72  SER72       0.2116
    134  OG        63.0740   24.2840    3.7030 O.3    72  SER72      -0.2180
    135  N         57.3830   35.2750    9.4810 N.3    92  GLY92      -0.1210
    136  CA        57.7460   35.1400    8.0810 C.3    92  GLY92       0.1956
    137  C         56.6000   35.4400    7.1120 C.2    92  GLY92       0.2611
    138  O         56.8900   35.7680    5.9640 O.2    92  GLY92      -0.2717
    139  N         55.3200   35.2760    7.5040 N.am   93  LEU93      -0.1979
    140  CA        54.1360   35.5770    6.7010 C.3    93  LEU93       0.1596
    141  C         53.8770   37.0830    6.6730 C.2    93  LEU93       0.2287
    142  O         54.3590   37.8390    7.5160 O.2    93  LEU93      -0.2864
    143  CB        52.8990   34.9020    7.2770 C.3    93  LEU93       0.0297
    144  CG        52.4790   33.4850    6.8150 C.3    93  LEU93       0.0022
    145  CD1       53.6610   32.5300    6.6460 C.3    93  LEU93       0.0001
    146  CD2       51.4350   33.0100    7.8090 C.3    93  LEU93       0.0001
@<TRIPOS>BOND
     1    44    42    1
     2    36    35   ar
     3    42    39    1
     4    42    43    1
     5    41    40    2
     6    39    40    1
     7    39    38    1
     8    35    37   ar
     9    35    34    1
    10    32    31    2
    11    33    34    1
    12    33    30    1
    13    31    38   am
    14    31    30    1
    15    30    29    1
    16     7     8    1
    17     7     6    1
    18     5     6    1
    19     5     2    1
    20     1     2    1
    21     8     9    2
    22    10     9    1
    23     3     2    1
    24     3     4    2
    25     9    11    1
    26    29    25   am
    27    26    25    2
    28    25    24    1
    29    90    89    1
    30    28    27    1
    31    89    88    1
    32    21    20    1
    33    24    27    1
    34    24    23    1
    35    22    20    1
    36    69    67   ar
    37    69    68   ar
    38    67    65   ar
    39    20    19    2
    40    88    87    1
    41    68    66   ar
    42   101    99    1
    43    65    66   ar
    44    65    64    1
    45    19    18    1
    46    64    61    1
    47    18    17    1
    48    87    86    1
    49    98    99    2
    50    98    97    1
    51    99   100    1
    52    86    83    1
    53    17    16    1
    54    50    49    1
    55    49    46    1
    56    60    61    1
    57    60    53   am
    58    61    62    1
    59    63    62    2
    60    16    13    1
    61    97    96    1
    62    62    70   am
    63    14    15    2
    64    14    13    1
    65    52    53    1
    66    52    51    1
    67    52    55    1
    68    83    82    1
    69    83    84    1
    70    53    54    2
    71    82    72   am
    72    96    95    1
    73    13    12    1
    74    46    45    1
    75    46    47    1
    76    57    58    1
    77    57    56    1
    78    70    71    1
    79    59    58    1
    80    72    71    1
    81    72    73    2
    82    55    56    1
    83    84    85    2
    84    71    74    1
    85    95    92    1
    86    47    48    2
    87    92    91    1
    88    92    93    1
    89   113   112    1
    90    74    75    1
    91    93    94    2
    92    76    75   ar
    93    76    78   ar
    94    75    77   ar
    95    78    80   ar
    96   112   111   ar
    97   112   110   ar
    98    77    79   ar
    99    80    79   ar
   100    80    81    1
   101   111   109   ar
   102   117   116    2
   103   110   108   ar
   104   134   133    1
   105   105   104    2
   106   120   118    1
   107   109   107   ar
   108   116   115    1
   109   116   122   am
   110   115   118    1
   111   115   114    1
   112   108   107   ar
   113   119   118    1
   114   119   121    1
   115   107   106    1
   116   104   114   am
   117   104   103    1
   118   133   130    1
   119   129   130    1
   120   129   124   am
   121   123   122    1
   122   123   124    1
   123   123   126    1
   124   128   126    1
   125   130   131    1
   126   102   103    1
   127   124   125    2
   128   138   137    2
   129   103   106    1
   130   126   127    1
   131   145   144    1
   132   141   140    1
   133   141   142    2
   134   140   143    1
   135   140   139    1
   136   144   143    1
   137   144   146    1
   138   137   139   am
   139   137   136    1
   140   131   132    2
   141   136   135    1
