@<TRIPOS>MOLECULE
tmp/1shbA00.pdb
 153 146 0 0 0
SMALL
GASTEIGER

@<TRIPOS>ATOM
      1  N         43.2710  -16.5730  -38.6030 N.3    11  ARG11      -0.1245
      2  CA        44.6790  -16.8100  -38.9730 C.3    11  ARG11       0.1563
      3  C         45.4960  -15.5190  -38.9930 C.2    11  ARG11       0.2260
      4  O         46.5870  -15.5000  -38.4400 O.2    11  ARG11      -0.2867
      5  CB        44.8100  -17.4570  -40.3710 C.3    11  ARG11       0.0307
      6  CG        46.2710  -17.5740  -40.8310 C.3    11  ARG11       0.0489
      7  CD        46.4730  -18.2870  -42.1570 C.3    11  ARG11       0.2205
      8  NE        46.1380  -19.6890  -42.0370 N.pl3  11  ARG11      -0.0865
      9  CZ        46.9460  -20.6630  -42.4760 C.cat  11  ARG11       0.5346
     10  NH1       48.1070  -20.3800  -43.0510 N.pl3  11  ARG11       0.1354
     11  NH2       46.6090  -21.9480  -42.3280 N.pl3  11  ARG11       0.1354
     12  N         43.6690  -22.0660  -31.5140 N.3    31  ARG31      -0.1245
     13  CA        42.4700  -21.3720  -31.9310 C.3    31  ARG31       0.1563
     14  C         41.6070  -22.3480  -32.6910 C.2    31  ARG31       0.2260
     15  O         42.0150  -23.4820  -32.9720 O.2    31  ARG31      -0.2867
     16  CB        42.8600  -20.1540  -32.8150 C.3    31  ARG31       0.0307
     17  CG        43.5680  -20.5090  -34.1100 C.3    31  ARG31       0.0489
     18  CD        43.8670  -19.3030  -35.0030 C.3    31  ARG31       0.2205
     19  NE        44.7430  -19.6990  -36.1100 N.pl3  31  ARG31      -0.0865
     20  CZ        44.3100  -20.0210  -37.3460 C.cat  31  ARG31       0.5346
     21  NH1       43.0280  -19.9760  -37.7040 N.pl3  31  ARG31       0.1354
     22  NH2       45.1950  -20.3700  -38.2780 N.pl3  31  ARG31       0.1354
     23  N         39.6620  -23.4420  -36.2840 N.3    33  SER33      -0.1202
     24  CA        39.9260  -23.2040  -37.7080 C.3    33  SER33       0.2020
     25  C         38.8230  -22.3830  -38.3910 C.2    33  SER33       0.2619
     26  O         37.6210  -22.5880  -38.1580 O.2    33  SER33      -0.2717
     27  CB        40.0500  -24.5170  -38.4780 C.3    33  SER33       0.2103
     28  OG        40.2840  -24.3220  -39.8680 O.3    33  SER33      -0.2182
     29  N         39.2290  -21.4440  -39.2640 N.am   34  GLU34      -0.1965
     30  CA        38.2910  -20.6670  -40.0730 C.3    34  GLU34       0.1733
     31  C         37.7640  -21.4840  -41.2560 C.2    34  GLU34       0.2617
     32  O         36.5770  -21.4770  -41.6040 O.2    34  GLU34      -0.2715
     33  CB        38.9190  -19.4840  -40.6980 C.3    34  GLU34       0.0429
     34  CG        39.7380  -18.5310  -39.8950 C.3    34  GLU34       0.1163
     35  CD        40.1000  -17.3750  -40.8150 C.2    34  GLU34       0.3649
     36  OE1       39.1900  -16.7680  -41.3990 O.co2  34  GLU34      -0.2457
     37  OE2       41.2960  -17.0950  -40.9570 O.co2  34  GLU34      -0.2457
     38  N         38.6960  -22.2010  -41.8990 N.am   35  THR35      -0.1951
     39  CA        38.3750  -23.0270  -43.0450 C.3    35  THR35       0.1897
     40  C         37.6420  -24.3210  -42.7760 C.2    35  THR35       0.2313
     41  O         36.7890  -24.7470  -43.5570 O.2    35  THR35      -0.2863
     42  CB        39.6430  -23.3410  -43.7950 C.3    35  THR35       0.1794
     43  OG1       40.5160  -24.0150  -42.9140 O.3    35  THR35      -0.2208
     44  CG2       40.2060  -22.0720  -44.3950 C.3    35  THR35       0.0378
     45  N         43.2450  -25.1580  -34.6600 N.3    41  CYS41      -0.1235
     46  CA        44.5650  -24.9350  -35.2410 C.3    41  CYS41       0.1677
     47  C         45.6540  -24.6300  -34.2040 C.2    41  CYS41       0.2270
     48  O         45.4310  -23.8930  -33.2450 O.2    41  CYS41      -0.2867
     49  CB        44.4700  -23.7970  -36.2570 C.3    41  CYS41       0.0956
     50  SG        46.1280  -23.4100  -36.9130 S.3    41  CYS41      -0.0801
     51  N         54.0660  -21.2900  -38.3620 N.3    56  LYS56      -0.1231
     52  CA        53.5800  -22.5630  -38.8980 C.3    56  LYS56       0.1693
     53  C         52.1730  -22.8180  -38.3490 C.2    56  LYS56       0.2592
     54  O         51.8830  -22.5310  -37.1830 O.2    56  LYS56      -0.2718
     55  CB        54.5060  -23.6610  -38.4840 C.3    56  LYS56       0.0285
     56  CG        55.9350  -23.4690  -38.9790 C.3    56  LYS56       0.0035
     57  CD        56.0050  -23.2120  -40.4810 C.3    56  LYS56       0.0206
     58  CE        57.3760  -23.4640  -41.1250 C.3    56  LYS56       0.1093
     59  NZ        58.4710  -22.8180  -40.4260 N.3    56  LYS56      -0.1314
     60  N         51.2340  -23.2520  -39.2030 N.am   57  HIS57      -0.1962
     61  CA        49.8460  -23.5520  -38.8020 C.3    57  HIS57       0.1787
     62  C         49.5760  -25.0410  -39.0030 C.2    57  HIS57       0.2620
     63  O         49.8610  -25.6440  -40.0410 O.2    57  HIS57      -0.2715
     64  CB        48.8380  -22.7620  -39.6340 C.3    57  HIS57       0.0785
     65  CG        48.9100  -21.2750  -39.3560 C.ar   57  HIS57       0.0821
     66  ND1       48.4150  -20.6240  -38.2980 N.ar   57  HIS57      -0.2267
     67  CD2       49.5420  -20.3540  -40.1590 C.ar   57  HIS57       0.1154
     68  CE1       48.7420  -19.3480  -38.4470 C.ar   57  HIS57       0.1986
     69  NE2       49.4170  -19.1850  -39.5610 N.ar   57  HIS57      -0.2212
     70  N         49.1040  -25.6620  -37.9340 N.am   58  TYR58      -0.1960
     71  CA        48.8120  -27.0690  -37.9780 C.3    58  TYR58       0.1771
     72  C         47.3340  -27.2080  -37.6350 C.2    58  TYR58       0.2619
     73  O         46.8340  -26.6480  -36.6520 O.2    58  TYR58      -0.2715
     74  CB        49.6960  -27.8270  -36.9530 C.3    58  TYR58       0.0574
     75  CG        51.2010  -27.6630  -37.0950 C.ar   58  TYR58      -0.0198
     76  CD1       51.8560  -28.4740  -38.0110 C.ar   58  TYR58      -0.0009
     77  CD2       51.8930  -26.7100  -36.3480 C.ar   58  TYR58      -0.0009
     78  CE1       53.2110  -28.3360  -38.1730 C.ar   58  TYR58       0.0417
     79  CE2       53.2440  -26.5690  -36.5140 C.ar   58  TYR58       0.0417
     80  CZ        53.8800  -27.3920  -37.4280 C.ar   58  TYR58       0.1957
     81  OH        55.2410  -27.3210  -37.5890 O.3    58  TYR58      -0.2866
     82  N         46.6100  -27.9420  -38.4880 N.am   59  LYS59      -0.1977
     83  CA        45.1970  -28.2020  -38.2630 C.3    59  LYS59       0.1596
     84  C         45.0600  -29.3150  -37.2450 C.2    59  LYS59       0.2287
     85  O         45.7100  -30.3410  -37.3340 O.2    59  LYS59      -0.2864
     86  CB        44.5080  -28.6080  -39.5750 C.3    59  LYS59       0.0298
     87  CG        43.0100  -28.4000  -39.4310 C.3    59  LYS59       0.0038
     88  CD        42.3040  -28.7790  -40.7000 C.3    59  LYS59       0.0206
     89  CE        42.5730  -27.7530  -41.7830 C.3    59  LYS59       0.1093
     90  NZ        42.0780  -28.1800  -43.0850 N.3    59  LYS59      -0.1314
     91  N         42.6220  -31.9590  -36.0290 N.3    61  ARG61      -0.1245
     92  CA        41.3430  -32.5240  -36.4370 C.3    61  ARG61       0.1563
     93  C         40.6890  -33.2760  -35.2780 C.2    61  ARG61       0.2260
     94  O         41.3360  -33.6990  -34.3160 O.2    61  ARG61      -0.2867
     95  CB        41.6230  -33.3970  -37.6330 C.3    61  ARG61       0.0307
     96  CG        42.2120  -32.5450  -38.7590 C.3    61  ARG61       0.0489
     97  CD        42.8100  -33.4220  -39.8360 C.3    61  ARG61       0.2205
     98  NE        43.7800  -32.7600  -40.7060 N.pl3  61  ARG61      -0.0865
     99  CZ        43.4800  -32.1780  -41.8790 C.cat  61  ARG61       0.5346
    100  NH1       42.2250  -32.1360  -42.3670 N.pl3  61  ARG61       0.1354
    101  NH2       44.4850  -31.6680  -42.6020 N.pl3  61  ARG61       0.1354
    102  N         46.8640  -34.0120  -34.8510 N.3    70  ILE70      -0.1231
    103  CA        47.4900  -33.3000  -35.9310 C.3    70  ILE70       0.1692
    104  C         47.8590  -34.4040  -36.9160 C.2    70  ILE70       0.2592
    105  O         47.5440  -34.3010  -38.1080 O.2    70  ILE70      -0.2718
    106  CB        48.7310  -32.5460  -35.4150 C.3    70  ILE70       0.0266
    107  CG1       48.2360  -31.3930  -34.5450 C.3    70  ILE70       0.0019
    108  CG2       49.5810  -32.0060  -36.5810 C.3    70  ILE70       0.0020
    109  CD1       49.2960  -30.5010  -33.9020 C.3    70  ILE70       0.0001
    110  N         48.5030  -35.4830  -36.4300 N.am   71  THR71      -0.1953
    111  CA        48.8220  -36.6310  -37.2840 C.3    71  THR71       0.1897
    112  C         48.0340  -37.7750  -36.6980 C.2    71  THR71       0.2313
    113  O         47.9770  -37.8710  -35.4660 O.2    71  THR71      -0.2863
    114  CB        50.3160  -37.0210  -37.2550 C.3    71  THR71       0.1794
    115  OG1       50.7040  -37.5940  -36.0190 O.3    71  THR71      -0.2208
    116  CG2       51.1350  -35.7840  -37.2690 C.3    71  THR71       0.0378
    117  N         48.8730  -40.7670  -36.3530 N.3    73  ARG73      -0.1245
    118  CA        49.8250  -41.4710  -35.4930 C.3    73  ARG73       0.1563
    119  C         49.7260  -41.1800  -34.0160 C.2    73  ARG73       0.2260
    120  O         50.1350  -42.0080  -33.2090 O.2    73  ARG73      -0.2867
    121  CB        51.2660  -41.1340  -35.7570 C.3    73  ARG73       0.0307
    122  CG        51.9320  -41.7060  -36.9650 C.3    73  ARG73       0.0489
    123  CD        52.9490  -40.6880  -37.4380 C.3    73  ARG73       0.2205
    124  NE        53.9570  -40.5090  -36.4310 N.pl3  73  ARG73      -0.0865
    125  CZ        54.5390  -39.3630  -36.1300 C.cat  73  ARG73       0.5346
    126  NH1       54.2860  -38.2000  -36.7110 N.pl3  73  ARG73       0.1354
    127  NH2       55.4390  -39.4280  -35.1830 N.pl3  73  ARG73       0.1354
    128  N         58.0460  -34.2220  -32.2900 N.3    91  ASP91      -0.1225
    129  CA        57.5050  -35.3810  -33.0110 C.3    91  ASP91       0.1805
    130  C         56.7180  -35.1000  -34.3020 C.2    91  ASP91       0.2598
    131  O         55.5180  -35.3630  -34.4640 O.2    91  ASP91      -0.2718
    132  CB        56.6580  -36.1820  -31.9900 C.3    91  ASP91       0.1424
    133  CG        56.1760  -37.5480  -32.4580 C.2    91  ASP91       0.3668
    134  OD1       56.8000  -38.1510  -33.3170 O.co2  91  ASP91      -0.2456
    135  OD2       55.1570  -38.0170  -31.9810 O.co2  91  ASP91      -0.2456
    136  N         57.4220  -34.4250  -35.2190 N.am   92  GLY92      -0.1942
    137  CA        56.8280  -34.0910  -36.5010 C.3    92  GLY92       0.2014
    138  C         56.5940  -32.6100  -36.7590 C.2    92  GLY92       0.2639
    139  O         56.5720  -32.2210  -37.9240 O.2    92  GLY92      -0.2714
    140  N         56.3400  -31.8050  -35.7060 N.am   93  LEU93      -0.1963
    141  CA        56.1910  -30.3520  -35.7630 C.3    93  LEU93       0.1728
    142  C         57.5530  -29.7450  -36.0480 C.2    93  LEU93       0.2616
    143  O         58.5940  -30.3660  -35.8200 O.2    93  LEU93      -0.2715
    144  CB        55.6620  -29.8230  -34.4250 C.3    93  LEU93       0.0311
    145  CG        54.1640  -29.6420  -34.1570 C.3    93  LEU93       0.0022
    146  CD1       53.3150  -30.7370  -34.7480 C.3    93  LEU93       0.0001
    147  CD2       54.0060  -29.5450  -32.6800 C.3    93  LEU93       0.0001
    148  N         57.5250  -28.5270  -36.5930 N.am   94  CYS94      -0.1968
    149  CA        58.6980  -27.7350  -36.9030 C.3    94  CYS94       0.1712
    150  C         59.6010  -27.5680  -35.6940 C.2    94  CYS94       0.2296
    151  O         60.8310  -27.5470  -35.8070 O.2    94  CYS94      -0.2864
    152  CB        58.2980  -26.3450  -37.3680 C.3    94  CYS94       0.0983
    153  SG        57.3420  -25.3340  -36.2050 S.3    94  CYS94      -0.0798
@<TRIPOS>BOND
     1    44    42    1
     2    42    39    1
     3    42    43    1
     4    41    40    2
     5    90    89    1
     6    10     9    1
     7    39    40    1
     8    39    38    1
     9   101    99    1
    10     9    11    1
    11     9     8    2
    12   100    99    1
    13     7     8    1
    14     7     6    1
    15    38    31   am
    16    99    98    2
    17    89    88    1
    18    32    31    2
    19    36    35   ar
    20    31    30    1
    21    58    57    1
    22    58    59    1
    23    37    35   ar
    24     6     5    1
    25    35    34    1
    26    98    97    1
    27    88    87    1
    28    33    30    1
    29    33    34    1
    30    57    56    1
    31     5     2    1
    32    67    69   ar
    33    67    65   ar
    34    30    29    1
    35    63    62    2
    36    28    27    1
    37    97    96    1
    38    64    65    1
    39    64    61    1
    40    86    87    1
    41    86    83    1
    42    69    68   ar
    43    65    66   ar
    44    29    25   am
    45    60    61    1
    46    60    53   am
    47    62    61    1
    48    62    70   am
    49     3     2    1
    50     3     4    2
    51    56    55    1
    52     2     1    1
    53    52    55    1
    54    52    51    1
    55    52    53    1
    56    96    95    1
    57    82    83    1
    58    82    72   am
    59    27    24    1
    60    68    66   ar
    61    25    26    2
    62    25    24    1
    63    53    54    2
    64    22    20    1
    65    83    84    1
    66    78    76   ar
    67    78    80   ar
    68   105   104    2
    69    76    75   ar
    70    71    70    1
    71    71    72    1
    72    71    74    1
    73   139   138    2
    74    24    23    1
    75    21    20    1
    76    72    73    2
    77    95    92    1
    78    81    80    1
    79   123   122    1
    80   123   124    1
    81    80    79   ar
    82   152   149    1
    83   152   153    1
    84    20    19    2
    85    85    84    2
    86   111   114    1
    87   111   112    1
    88   111   110    1
    89   116   114    1
    90   114   115    1
    91    75    74    1
    92    75    77   ar
    93   122   121    1
    94   104   110   am
    95   104   103    1
    96    50    49    1
    97   149   148    1
    98   149   150    1
    99   138   137    1
   100   138   140   am
   101   126   125    1
   102   112   113    2
   103   148   142   am
   104   108   106    1
   105    79    77   ar
   106   137   136    1
   107    92    91    1
   108    92    93    1
   109   124   125    2
   110   117   118    1
   111    49    46    1
   112   125   127    1
   113    19    18    1
   114   142   143    2
   115   142   141    1
   116   103   106    1
   117   103   102    1
   118   151   150    2
   119   141   140    1
   120   141   144    1
   121   121   118    1
   122   118   119    1
   123   106   107    1
   124    93    94    2
   125    46    45    1
   126    46    47    1
   127   136   130   am
   128    18    17    1
   129   146   145    1
   130   107   109    1
   131   131   130    2
   132   144   145    1
   133   130   129    1
   134    47    48    2
   135   145   147    1
   136    17    16    1
   137   119   120    2
   138   134   133   ar
   139   129   128    1
   140   129   132    1
   141    15    14    2
   142    16    13    1
   143    14    13    1
   144   133   132    1
   145   133   135   ar
   146    13    12    1
