@<TRIPOS>MOLECULE
tmp/1shdA00.pdb
 152 145 0 0 0
SMALL
GASTEIGER

@<TRIPOS>ATOM
      1  N         23.7730   17.5160    8.3460 N.3    14  ARG14      -0.1245
      2  CA        23.8750   16.0770    8.2880 C.3    14  ARG14       0.1563
      3  C         25.1260   15.6540    9.0360 C.2    14  ARG14       0.2260
      4  O         25.0740   14.6720    9.7810 O.2    14  ARG14      -0.2867
      5  CB        23.9640   15.6050    6.8420 C.3    14  ARG14       0.0307
      6  CG        24.2410   14.0900    6.7630 C.3    14  ARG14       0.0489
      7  CD        24.4770   13.6310    5.3200 C.3    14  ARG14       0.2205
      8  NE        23.1930   13.6090    4.6940 N.pl3  14  ARG14      -0.0865
      9  CZ        22.7570   12.6610    3.8820 C.cat  14  ARG14       0.5346
     10  NH1       23.4490   11.6160    3.4920 N.pl3  14  ARG14       0.1354
     11  NH2       21.4890   12.7280    3.5720 N.pl3  14  ARG14       0.1354
     12  N         15.3330   16.4310   12.3160 N.3    34  ARG34      -0.1245
     13  CA        15.9370   17.7390   12.1520 C.3    34  ARG34       0.1563
     14  C         15.2670   18.4530   10.9650 C.2    34  ARG34       0.2260
     15  O         14.6190   17.8860   10.0600 O.2    34  ARG34      -0.2867
     16  CB        17.4340   17.6050   11.8780 C.3    34  ARG34       0.0307
     17  CG        17.7380   16.6790   10.6840 C.3    34  ARG34       0.0489
     18  CD        19.2340   16.4570   10.5170 C.3    34  ARG34       0.2205
     19  NE        19.5540   15.3980    9.5660 N.pl3  34  ARG34      -0.0865
     20  CZ        19.8800   15.6570    8.3030 C.cat  34  ARG34       0.5346
     21  NH1       19.8970   16.9010    7.8510 N.pl3  34  ARG34       0.1354
     22  NH2       20.1420   14.6600    7.4690 N.pl3  34  ARG34       0.1354
     23  N         15.4000   20.4940    7.5110 N.3    36  SER36      -0.1202
     24  CA        16.2720   20.4880    6.3240 C.3    36  SER36       0.2020
     25  C         17.0670   21.7810    6.3010 C.2    36  SER36       0.2618
     26  O         16.5440   22.8860    6.5030 O.2    36  SER36      -0.2717
     27  CB        15.4910   20.4150    4.9880 C.3    36  SER36       0.2103
     28  OG        14.6580   19.2570    4.7580 O.3    36  SER36      -0.2182
     29  N         18.3550   21.4960    6.2310 N.am   37  GLU37      -0.1979
     30  CA        19.3750   22.5070    6.1490 C.3    37  GLU37       0.1602
     31  C         19.4990   22.6440    4.6350 C.2    37  GLU37       0.2287
     32  O         19.2380   23.7400    4.1310 O.2    37  GLU37      -0.2864
     33  CB        20.6720   21.9870    6.7690 C.3    37  GLU37       0.0415
     34  CG        21.1250   22.7360    8.0110 C.3    37  GLU37       0.1163
     35  CD        21.8560   24.0670    7.8410 C.2    37  GLU37       0.3649
     36  OE1       21.9430   24.6090    6.7380 O.co2  37  GLU37      -0.2457
     37  OE2       22.3560   24.5680    8.8470 O.co2  37  GLU37      -0.2457
     38  N         13.8620   16.0060    8.1240 N.3    40  CYS40      -0.1235
     39  CA        14.6140   14.8230    7.7590 C.3    40  CYS40       0.1677
     40  C         14.5800   13.8520    8.9340 C.2    40  CYS40       0.2270
     41  O         14.6150   14.3460   10.0650 O.2    40  CYS40      -0.2867
     42  CB        16.0530   15.2080    7.4620 C.3    40  CYS40       0.0956
     43  SG        16.1510   16.4740    6.1880 S.3    40  CYS40      -0.0801
     44  N         21.1730    6.3160    8.2010 N.3    55  LYS55      -0.1231
     45  CA        20.3910    6.4950    6.9750 C.3    55  LYS55       0.1693
     46  C         19.5530    7.7620    7.1690 C.2    55  LYS55       0.2592
     47  O         19.1410    8.0540    8.3130 O.2    55  LYS55      -0.2718
     48  CB        19.4370    5.3700    6.7460 C.3    55  LYS55       0.0285
     49  CG        19.9260    4.2720    5.8700 C.3    55  LYS55       0.0035
     50  CD        20.8220    3.3580    6.5950 C.3    55  LYS55       0.0206
     51  CE        21.1420    2.3160    5.5350 C.3    55  LYS55       0.1093
     52  NZ        21.7520    1.1410    6.1380 N.3    55  LYS55      -0.1314
     53  N         19.3510    8.5850    6.1300 N.am   56  HIS56      -0.1962
     54  CA        18.6000    9.8090    6.2580 C.3    56  HIS56       0.1787
     55  C         17.3980    9.7130    5.3610 C.2    56  HIS56       0.2620
     56  O         17.5770    9.3380    4.2040 O.2    56  HIS56      -0.2715
     57  CB        19.4600   10.9860    5.8390 C.3    56  HIS56       0.0785
     58  CG        20.6680   11.1750    6.7440 C.ar   56  HIS56       0.0821
     59  ND1       20.7100   11.8900    7.8530 N.ar   56  HIS56      -0.2267
     60  CD2       21.9170   10.6120    6.5770 C.ar   56  HIS56       0.1154
     61  CE1       21.9130   11.7950    8.3740 C.ar   56  HIS56       0.1986
     62  NE2       22.6380   11.0180    7.6110 N.ar   56  HIS56      -0.2212
     63  N         16.1870   10.0400    5.8080 N.am   57  TYR57      -0.1960
     64  CA        14.9500    9.9420    5.0450 C.3    57  TYR57       0.1771
     65  C         14.3520   11.3230    4.9500 C.2    57  TYR57       0.2619
     66  O         14.4190   12.0480    5.9470 O.2    57  TYR57      -0.2715
     67  CB        13.9430    9.0400    5.7450 C.3    57  TYR57       0.0574
     68  CG        14.4730    7.6240    5.8630 C.ar   57  TYR57      -0.0198
     69  CD1       14.2790    6.7300    4.7980 C.ar   57  TYR57      -0.0009
     70  CD2       15.1670    7.2200    7.0200 C.ar   57  TYR57      -0.0009
     71  CE1       14.7780    5.4320    4.8830 C.ar   57  TYR57       0.0417
     72  CE2       15.6740    5.9190    7.1090 C.ar   57  TYR57       0.0417
     73  CZ        15.4670    5.0470    6.0340 C.ar   57  TYR57       0.1957
     74  OH        15.9330    3.7440    6.1390 O.3    57  TYR57      -0.2866
     75  N         13.7760   11.7710    3.8460 N.am   58  LYS58      -0.1977
     76  CA        13.1430   13.0680    3.7990 C.3    58  LYS58       0.1596
     77  C         11.7190   12.9350    4.2450 C.2    58  LYS58       0.2287
     78  O         11.0400   12.0000    3.8200 O.2    58  LYS58      -0.2864
     79  CB        13.0180   13.6900    2.4140 C.3    58  LYS58       0.0298
     80  CG        14.3250   14.1630    1.8750 C.3    58  LYS58       0.0038
     81  CD        13.9840   15.3280    0.9860 C.3    58  LYS58       0.0206
     82  CE        15.2480   15.8650    0.3050 C.3    58  LYS58       0.1093
     83  NZ        15.7500   14.9340   -0.6880 N.3    58  LYS58      -0.1314
     84  N          8.3430   14.4790    3.6580 N.3    60  ARG60      -0.1245
     85  CA         7.6760   15.3340    2.7130 C.3    60  ARG60       0.1563
     86  C          6.4120   15.8600    3.3340 C.2    60  ARG60       0.2260
     87  O          5.7770   15.2320    4.1840 O.2    60  ARG60      -0.2867
     88  CB         7.3820   14.5230    1.4960 C.3    60  ARG60       0.0307
     89  CG         8.6540   14.2310    0.7530 C.3    60  ARG60       0.0489
     90  CD         8.5720   13.2650   -0.4410 C.3    60  ARG60       0.2205
     91  NE         9.6800   13.5370   -1.3820 N.pl3  60  ARG60      -0.0865
     92  CZ        10.7390   12.7360   -1.6610 C.cat  60  ARG60       0.5346
     93  NH1       10.9090   11.5330   -1.0870 N.pl3  60  ARG60       0.1354
     94  NH2       11.6530   13.1910   -2.5440 N.pl3  60  ARG60       0.1354
     95  N          6.7880    9.8060    4.6240 N.3    69  ILE69      -0.1231
     96  CA         8.0760    9.4000    4.0810 C.3    69  ILE69       0.1692
     97  C          7.7190    8.5410    2.8460 C.2    69  ILE69       0.2592
     98  O          8.3080    8.7790    1.7850 O.2    69  ILE69      -0.2718
     99  CB         8.9120    8.5850    5.1450 C.3    69  ILE69       0.0266
    100  CG1        9.2890    9.4670    6.3460 C.3    69  ILE69       0.0019
    101  CG2       10.2030    8.1080    4.5340 C.3    69  ILE69       0.0020
    102  CD1        9.8730    8.6680    7.5150 C.3    69  ILE69       0.0001
    103  N          6.7960    7.5710    2.9300 N.am   70  THR70      -0.1953
    104  CA         6.2650    6.7600    1.8280 C.3    70  THR70       0.1897
    105  C          4.8190    7.2300    1.6440 C.2    70  THR70       0.2313
    106  O          4.1100    7.4760    2.6200 O.2    70  THR70      -0.2863
    107  CB         6.0560    5.2910    2.1210 C.3    70  THR70       0.1794
    108  OG1        6.8390    4.9300    3.2340 O.3    70  THR70      -0.2208
    109  CG2        6.3350    4.5020    0.9110 C.3    70  THR70       0.0378
    110  N          2.5050    5.4180    1.0120 N.3    72  ARG72      -0.1245
    111  CA         1.8110    4.3260    1.6030 C.3    72  ARG72       0.1563
    112  C          1.1960    4.7650    2.9200 C.2    72  ARG72       0.2260
    113  O          0.0880    4.3220    3.2350 O.2    72  ARG72      -0.2867
    114  CB         2.8790    3.2630    1.7230 C.3    72  ARG72       0.0307
    115  CG         2.4280    1.8840    2.1120 C.3    72  ARG72       0.0489
    116  CD         3.5420    0.8510    1.9110 C.3    72  ARG72       0.2205
    117  NE         4.5370    0.7240    2.9670 N.pl3  72  ARG72      -0.0865
    118  CZ         5.8360    0.6530    2.6470 C.cat  72  ARG72       0.5346
    119  NH1        6.2730    0.7150    1.3750 N.pl3  72  ARG72       0.1354
    120  NH2        6.7220    0.4330    3.6080 N.pl3  72  ARG72       0.1354
    121  N          6.4970    4.8160   13.4780 N.3    85  TYR85      -0.1241
    122  CA         7.6930    4.0770   13.1140 C.3    85  TYR85       0.1605
    123  C          8.4550    3.6020   14.3200 C.2    85  TYR85       0.2264
    124  O          9.3900    2.8220   14.1730 O.2    85  TYR85      -0.2867
    125  CB         8.6340    4.8820   12.2180 C.3    85  TYR85       0.0534
    126  CG         8.0700    5.0270   10.7960 C.ar   85  TYR85      -0.0201
    127  CD1        8.0230    3.9460    9.8970 C.ar   85  TYR85      -0.0009
    128  CD2        7.5350    6.2540   10.4040 C.ar   85  TYR85      -0.0009
    129  CE1        7.4410    4.0810    8.6270 C.ar   85  TYR85       0.0417
    130  CE2        6.9510    6.3940    9.1390 C.ar   85  TYR85       0.0417
    131  CZ         6.9050    5.3120    8.2620 C.ar   85  TYR85       0.1957
    132  OH         6.3130    5.5140    7.0350 O.3    85  TYR85      -0.2866
    133  N          8.3750   -0.7420    8.9500 N.3    90  ASP90      -0.1225
    134  CA         7.5860   -0.6420    7.7180 C.3    90  ASP90       0.1805
    135  C          8.2840    0.0450    6.5330 C.2    90  ASP90       0.2598
    136  O          7.8470    1.0910    6.0210 O.2    90  ASP90      -0.2718
    137  CB         6.2540    0.0480    8.1160 C.3    90  ASP90       0.1424
    138  CG         5.1860    0.1610    7.0360 C.2    90  ASP90       0.3668
    139  OD1        5.0140   -0.7400    6.2130 O.co2  90  ASP90      -0.2456
    140  OD2        4.5340    1.1920    6.9960 O.co2  90  ASP90      -0.2456
    141  N          9.4310   -0.5560    6.1520 N.am   91  GLY91      -0.1942
    142  CA        10.2450   -0.0870    5.0330 C.3    91  GLY91       0.2014
    143  C         11.4990    0.7000    5.4360 C.2    91  GLY91       0.2638
    144  O         12.4130    0.8730    4.6230 O.2    91  GLY91      -0.2714
    145  N         11.5350    1.2640    6.6540 N.am   92  LEU92      -0.1977
    146  CA        12.6790    1.9770    7.1730 C.3    92  LEU92       0.1596
    147  C         13.7320    0.9340    7.4680 C.2    92  LEU92       0.2287
    148  O         13.3960   -0.2390    7.6450 O.2    92  LEU92      -0.2864
    149  CB        12.2990    2.6630    8.4380 C.3    92  LEU92       0.0297
    150  CG        12.2890    4.1450    8.4970 C.3    92  LEU92       0.0022
    151  CD1       11.6620    4.7940    7.3080 C.3    92  LEU92       0.0001
    152  CD2       11.5290    4.4690    9.7510 C.3    92  LEU92       0.0001
@<TRIPOS>BOND
     1    94    92    1
     2    92    91    2
     3    92    93    1
     4    91    90    1
     5    83    82    1
     6    90    89    1
     7    82    81    1
     8    89    88    1
     9   109   107    1
    10    81    80    1
    11   110   111    1
    12   119   118    1
    13    88    85    1
    14   111   114    1
    15   111   112    1
    16   105   104    1
    17   105   106    2
    18   114   115    1
    19    98    97    2
    20   104   107    1
    21   104   103    1
    22    80    79    1
    23   116   115    1
    24   116   117    1
    25   107   108    1
    26    79    76    1
    27   118   117    2
    28   118   120    1
    29    85    86    1
    30    85    84    1
    31    97   103   am
    32    97    96    1
    33   112   113    2
    34    86    87    2
    35    10     9    1
    36    11     9    1
    37    76    75    1
    38    76    77    1
    39    78    77    2
    40    75    65   am
    41     9     8    2
    42    96    95    1
    43    96    99    1
    44    32    31    2
    45    56    55    2
    46   101    99    1
    47   144   143    2
    48    31    30    1
    49     8     7    1
    50    28    27    1
    51    69    71   ar
    52    69    68   ar
    53    71    73   ar
    54    65    64    1
    55    65    66    2
    56    27    24    1
    57   142   143    1
    58   142   141    1
    59    64    67    1
    60    64    63    1
    61    99   100    1
    62     7     6    1
    63    55    63   am
    64    55    54    1
    65   143   145   am
    66    51    52    1
    67    51    50    1
    68    67    68    1
    69    57    54    1
    70    57    58    1
    71    68    70   ar
    72    49    50    1
    73    49    48    1
    74   136   135    2
    75    73    74    1
    76    73    72   ar
    77    53    54    1
    78    53    46   am
    79    30    29    1
    80    30    33    1
    81   141   135   am
    82    43    42    1
    83   139   138   ar
    84    29    25   am
    85    25    24    1
    86    25    26    2
    87    24    23    1
    88   100   102    1
    89   135   134    1
    90    60    58   ar
    91    60    62   ar
    92   145   146    1
    93    36    35   ar
    94    58    59   ar
    95    48    45    1
    96     6     5    1
    97    33    34    1
    98     5     2    1
    99    45    46    1
   100    45    44    1
   101   140   138   ar
   102    70    72   ar
   103   132   131    1
   104   138   137    1
   105    46    47    2
   106   146   147    1
   107   146   149    1
   108   151   150    1
   109    42    39    1
   110   147   148    2
   111    22    20    1
   112    62    61   ar
   113   134   137    1
   114   134   133    1
   115    39    38    1
   116    39    40    1
   117    35    34    1
   118    35    37   ar
   119    21    20    1
   120    59    61   ar
   121   131   129   ar
   122   131   130   ar
   123     2     1    1
   124     2     3    1
   125    20    19    2
   126   149   150    1
   127   150   152    1
   128   129   127   ar
   129    40    41    2
   130     3     4    2
   131   130   128   ar
   132    19    18    1
   133   127   126   ar
   134    15    14    2
   135   128   126   ar
   136    18    17    1
   137    17    16    1
   138   126   125    1
   139    14    13    1
   140    16    13    1
   141    13    12    1
   142   125   122    1
   143   122   121    1
   144   122   123    1
   145   124   123    2
