@<TRIPOS>MOLECULE
tmp/1shjA00.pdb
 148 143 0 0 0
SMALL
GASTEIGER

@<TRIPOS>ATOM
      1  N         45.1100   17.6500   -5.6800 N.3    90  GLU90      -0.1231
      2  CA        44.4850   16.5180   -5.0400 C.3    90  GLU90       0.1699
      3  C         45.4050   15.9270   -3.9640 C.2    90  GLU90       0.2595
      4  O         45.3930   16.4020   -2.8230 O.2    90  GLU90      -0.2718
      5  CB        43.9580   15.5080   -6.0790 C.3    90  GLU90       0.0402
      6  CG        42.4340   15.6140   -6.3000 C.3    90  GLU90       0.1161
      7  CD        42.0100   15.6040   -7.7790 C.2    90  GLU90       0.3649
      8  OE1       42.4550   14.7110   -8.5460 O.co2  90  GLU90      -0.2457
      9  OE2       41.2100   16.4890   -8.1780 O.co2  90  GLU90      -0.2457
     10  N         46.2260   14.9430   -4.3110 N.am   91  GLU91      -0.1920
     11  CA        46.9730   14.2180   -3.2860 C.3    91  GLU91       0.1949
     12  C         48.4550   14.5810   -3.2700 C.2    91  GLU91       0.2658
     13  O         48.9000   15.3890   -2.4530 O.2    91  GLU91      -0.2711
     14  CB        46.7840   12.7040   -3.4770 C.2    91  GLU91       0.0111
     15  CG        46.0130   11.9400   -2.3890 C.2    91  GLU91       0.0838
     16  CD        45.3600   12.8080   -1.3190 C.2    91  GLU91       0.3877
     17  OE1       44.2160   13.2660   -1.5360 O.co2  91  GLU91      -0.2406
     18  OE2       45.9770   13.0100   -0.2480 O.co2  91  GLU91      -0.2406
     19  N         49.1990   13.9670   -4.1830 N.am   92  ASN92      -0.1969
     20  CA        50.6410   14.1400   -4.3200 C.3    92  ASN92       0.1688
     21  C         50.9230   15.0670   -5.4850 C.2    92  ASN92       0.2292
     22  O         52.0450   15.1180   -6.0060 O.2    92  ASN92      -0.2864
     23  CB        51.2800   12.7790   -4.6190 C.3    92  ASN92       0.1181
     24  CG        50.5940   12.0460   -5.7820 C.2    92  ASN92       0.2629
     25  OD1       49.3600   11.9490   -5.8360 O.2    92  ASN92      -0.2716
     26  ND2       51.3960   11.5340   -6.7160 N.am   92  ASN92      -0.0877
     27  N         53.8170   16.9570   -7.1930 N.3   103  ILE103     -0.1231
     28  CA        54.5450   17.9540   -6.4030 C.3   103  ILE103      0.1692
     29  C         56.0260   17.6290   -6.3010 C.2   103  ILE103      0.2591
     30  O         56.8740   18.4650   -6.6070 O.2   103  ILE103     -0.2718
     31  CB        53.9420   18.0640   -4.9750 C.3   103  ILE103      0.0266
     32  CG1       52.4300   18.3730   -5.0420 C.3   103  ILE103      0.0019
     33  CG2       54.7700   19.0240   -4.1080 C.3   103  ILE103      0.0020
     34  CD1       51.9560   19.5410   -4.1860 C.3   103  ILE103      0.0001
     35  N         56.3240   16.4050   -5.8770 N.am  104  LYS104     -0.1980
     36  CA        57.6950   15.9810   -5.6200 C.3   104  LYS104      0.1596
     37  C         58.6080   16.1540   -6.8330 C.2   104  LYS104      0.2287
     38  O         59.8170   16.3470   -6.6880 O.2   104  LYS104     -0.2864
     39  CB        57.7310   14.5340   -5.1040 C.3   104  LYS104      0.0298
     40  CG        56.9690   13.5110   -5.9620 C.3   104  LYS104      0.0038
     41  CD        57.1870   12.0550   -5.5020 C.3   104  LYS104      0.0206
     42  CE        58.6700   11.6750   -5.3920 C.3   104  LYS104      0.1093
     43  NZ        59.0090   11.2620   -3.9900 N.3   104  LYS104     -0.1314
     44  N         60.1830   19.6970   -6.8590 N.3   107  THR107     -0.1218
     45  CA        61.2450   19.9020   -5.8670 C.3   107  THR107      0.1862
     46  C         62.4970   19.0650   -6.1210 C.2   107  THR107      0.2287
     47  O         63.5640   19.3870   -5.6000 O.2   107  THR107     -0.2866
     48  CB        60.7590   19.6000   -4.4430 C.3   107  THR107      0.1770
     49  OG1       60.6960   18.1810   -4.2680 O.3   107  THR107     -0.2211
     50  CG2       59.3270   20.0620   -4.2250 C.3   107  THR107      0.0375
     51  N         52.3770   25.7060   -0.5350 N.3   127  ILE127     -0.1245
     52  CA        51.4110   25.1160   -1.4630 C.3   127  ILE127      0.1561
     53  C         49.9870   25.3560   -1.0020 C.2   127  ILE127      0.2260
     54  O         49.6360   25.0790    0.1370 O.2   127  ILE127     -0.2867
     55  CB        51.6830   23.6120   -1.6610 C.3   127  ILE127      0.0252
     56  CG1       53.0510   23.3970   -2.2950 C.3   127  ILE127      0.0019
     57  CG2       50.6390   23.0070   -2.5690 C.3   127  ILE127      0.0019
     58  CD1       53.6040   22.0130   -2.1380 C.3   127  ILE127      0.0001
     59  N         40.3680   21.7130   -4.1360 N.3   131  ARG131     -0.1245
     60  CA        39.6830   20.4750   -4.5280 C.3   131  ARG131      0.1563
     61  C         38.8110   20.7260   -5.7360 C.2   131  ARG131      0.2260
     62  O         38.8280   21.8260   -6.3150 O.2   131  ARG131     -0.2867
     63  CB        38.7610   19.9880   -3.4000 C.3   131  ARG131      0.0307
     64  CG        39.4450   19.6800   -2.0850 C.3   131  ARG131      0.0489
     65  CD        40.2010   18.3690   -2.1150 C.3   131  ARG131      0.2205
     66  NE        41.6120   18.5670   -1.7950 N.pl3 131  ARG131     -0.0865
     67  CZ        42.4470   17.5980   -1.4190 C.cat 131  ARG131      0.5346
     68  NH1       42.0270   16.3400   -1.3240 N.pl3 131  ARG131      0.1354
     69  NH2       43.7140   17.8890   -1.1410 N.pl3 131  ARG131      0.1354
     70  N         50.2190    9.8860   -1.0150 N.3   137  TYR137     -0.1227
     71  CA        51.2940   10.8110   -1.3870 C.3   137  TYR137      0.1736
     72  C         52.6050   10.5060   -0.6730 C.2   137  TYR137      0.2595
     73  O         52.6050   10.0290    0.4590 O.2   137  TYR137     -0.2718
     74  CB        50.8890   12.2730   -1.1490 C.3   137  TYR137      0.0548
     75  CG        50.3980   12.6160    0.2450 C.ar  137  TYR137     -0.0200
     76  CD1       51.2840   13.0290    1.2430 C.ar  137  TYR137     -0.0009
     77  CD2       49.0400   12.5630    0.5550 C.ar  137  TYR137     -0.0009
     78  CE1       50.8290   13.3610    2.5200 C.ar  137  TYR137      0.0417
     79  CE2       48.5740   12.8940    1.8270 C.ar  137  TYR137      0.0417
     80  CZ        49.4710   13.2900    2.8040 C.ar  137  TYR137      0.1957
     81  OH        48.9980   13.6160    4.0570 O.3   137  TYR137     -0.2866
     82  N         53.7210   10.7860   -1.3380 N.am  138  LYS138     -0.1966
     83  CA        55.0340   10.6080   -0.7280 C.3   138  LYS138      0.1728
     84  C         55.7800   11.9350   -0.6420 C.2   138  LYS138      0.2616
     85  O         56.1170   12.5370   -1.6680 O.2   138  LYS138     -0.2715
     86  CB        55.8630    9.5830   -1.5050 C.3   138  LYS138      0.0311
     87  CG        56.8390    8.8000   -0.6470 C.3   138  LYS138      0.0038
     88  CD        58.2700    9.2610   -0.8610 C.3   138  LYS138      0.0206
     89  CE        59.2220    8.5260    0.0680 C.3   138  LYS138      0.1093
     90  NZ        59.5110    7.1480   -0.4250 N.3   138  LYS138     -0.1314
     91  N         55.9230   12.4460    0.6030 N.am  139  ILE139     -0.1964
     92  CA        56.7540   13.6210    0.8530 C.3   139  ILE139      0.1712
     93  C         58.2140   13.1950    0.7270 C.2   139  ILE139      0.2458
     94  O         58.6380   12.2460    1.3890 O.2   139  ILE139     -0.2730
     95  CB        56.4760   14.2280    2.2550 C.3   139  ILE139      0.0289
     96  CG1       54.9950   14.0740    2.6330 C.3   139  ILE139      0.0022
     97  CG2       56.9480   15.6820    2.3150 C.3   139  ILE139      0.0023
     98  CD1       54.3510   15.2930    3.2680 C.3   139  ILE139      0.0001
     99  N         58.9700   13.8710   -0.1400 N.am  140  PRO140     -0.2727
    100  CA        60.3970   13.5770   -0.3280 C.3   140  PRO140      0.1402
    101  C         61.1840   14.0270    0.8960 C.2   140  PRO140      0.2269
    102  O         60.8030   15.0180    1.5130 O.2   140  PRO140     -0.2865
    103  CB        60.7730   14.4120   -1.5560 C.3   140  PRO140      0.0296
    104  CG        59.7750   15.5070   -1.6120 C.3   140  PRO140      0.0237
    105  CD        58.5180   14.9800   -0.9990 C.3   140  PRO140      0.0939
    106  N         57.8560   22.4360    3.7600 N.3   147  PHE147     -0.1241
    107  CA        56.6120   22.5930    3.0260 C.3   147  PHE147      0.1605
    108  C         55.5800   23.1610    3.9680 C.2   147  PHE147      0.2264
    109  O         55.5360   22.8020    5.1490 O.2   147  PHE147     -0.2867
    110  CB        56.1270   21.2580    2.4680 C.3   147  PHE147      0.0534
    111  CG        57.1460   20.5330    1.6540 C.ar  147  PHE147     -0.0203
    112  CD1       58.1510   19.7950    2.2670 C.ar  147  PHE147     -0.0042
    113  CD2       57.0970   20.5740    0.2760 C.ar  147  PHE147     -0.0042
    114  CE1       59.1050   19.1260    1.5150 C.ar  147  PHE147     -0.0003
    115  CE2       58.0460   19.8970   -0.4850 C.ar  147  PHE147     -0.0003
    116  CZ        59.0480   19.1720    0.1370 C.ar  147  PHE147     -0.0000
    117  N         51.7200   23.2220    3.4620 N.3   149  TYR149     -0.1241
    118  CA        50.6800   22.7130    2.5720 C.3   149  TYR149      0.1605
    119  C         49.3180   23.0950    3.1210 C.2   149  TYR149      0.2264
    120  O         49.1180   23.1020    4.3290 O.2   149  TYR149     -0.2867
    121  CB        50.7990   21.1950    2.5050 C.3   149  TYR149      0.0534
    122  CG        50.1180   20.5470    1.3280 C.ar  149  TYR149     -0.0201
    123  CD1       50.8500   20.1320    0.2220 C.ar  149  TYR149     -0.0009
    124  CD2       48.7390   20.3180    1.3290 C.ar  149  TYR149     -0.0009
    125  CE1       50.2250   19.5280   -0.8690 C.ar  149  TYR149      0.0417
    126  CE2       48.1000   19.7150    0.2430 C.ar  149  TYR149      0.0417
    127  CZ        48.8480   19.3220   -0.8500 C.ar  149  TYR149      0.1957
    128  OH        48.2250   18.7240   -1.9270 O.3   149  TYR149     -0.2866
    129  N         49.3000   22.3000    7.3090 N.3   195  CYS195     -0.1221
    130  CA        50.3470   21.5970    8.0300 C.3   195  CYS195      0.1808
    131  C         51.7210   22.0480    7.5580 C.2   195  CYS195      0.2601
    132  O         51.8930   22.4840    6.4140 O.2   195  CYS195     -0.2717
    133  CB        50.2180   20.1190    7.7790 C.3   195  CYS195      0.0970
    134  SG        50.4110   19.8230    6.0330 S.3   195  CYS195     -0.0800
    135  N         52.6970   21.9360    8.4470 N.am  196  VAL196     -0.1965
    136  CA        54.0650   22.2830    8.1070 C.3   196  VAL196      0.1727
    137  C         54.9400   21.0410    8.1750 C.2   196  VAL196      0.2616
    138  O         55.0240   20.3880    9.2120 O.2   196  VAL196     -0.2715
    139  CB        54.5980   23.3650    9.0370 C.3   196  VAL196      0.0290
    140  CG1       55.9760   23.7940    8.6040 C.3   196  VAL196      0.0023
    141  CG2       53.6480   24.5460    9.0450 C.3   196  VAL196      0.0023
    142  N         55.5580   20.6900    7.0600 N.am  197  VAL197     -0.1977
    143  CA        56.4870   19.5760    7.0660 C.3   197  VAL197      0.1596
    144  C         57.8870   20.1680    7.0720 C.2   197  VAL197      0.2287
    145  O         58.2760   20.8480    6.1260 O.2   197  VAL197     -0.2864
    146  CB        56.2970   18.6570    5.8450 C.3   197  VAL197      0.0276
    147  CG1       57.2620   17.4840    5.8980 C.3   197  VAL197      0.0022
    148  CG2       54.8860   18.1580    5.7730 C.3   197  VAL197      0.0022
@<TRIPOS>BOND
     1     8     7   ar
     2     9     7   ar
     3     7     6    1
     4    27    28    1
     5    44    45    1
     6    37    38    2
     7    37    36    1
     8    26    24   am
     9    30    29    2
    10    28    29    1
    11    28    31    1
    12    62    61    2
    13    29    35   am
    14     6     5    1
    15    46    45    1
    16    46    47    2
    17     5     2    1
    18    22    21    2
    19    40    41    1
    20    40    39    1
    21    35    36    1
    22    45    48    1
    23    25    24    2
    24    24    23    1
    25    61    60    1
    26     1     2    1
    27    36    39    1
    28    41    42    1
    29    21    20    1
    30    42    43    1
    31    32    31    1
    32    32    34    1
    33     2     3    1
    34    31    33    1
    35    23    20    1
    36    60    59    1
    37    60    63    1
    38    48    49    1
    39    48    50    1
    40    20    19    1
    41    10     3   am
    42    10    11    1
    43    19    12   am
    44     3     4    2
    45    14    11    1
    46    14    15    2
    47    63    64    1
    48    11    12    1
    49    12    13    2
    50    57    55    1
    51    15    16    1
    52    56    58    1
    53    56    55    1
    54    65    64    1
    55    65    66    1
    56   128   127    1
    57    66    67    2
    58    85    84    2
    59    55    52    1
    60   104   103    1
    61   104   105    1
    62   103   100    1
    63    17    16   ar
    64    86    83    1
    65    86    87    1
    66    52    53    1
    67    52    51    1
    68    67    68    1
    69    67    69    1
    70    71    74    1
    71    71    70    1
    72    71    72    1
    73    82    83    1
    74    82    72   am
    75    16    18   ar
    76    74    75    1
    77    53    54    2
    78   105    99    1
    79   125   127   ar
    80   125   123   ar
    81    88    87    1
    82    88    89    1
    83   127   126   ar
    84    83    84    1
    85    72    73    2
    86    84    91   am
    87   115   116   ar
    88   115   113   ar
    89    90    89    1
    90   100    99    1
    91   100   101    1
    92    99    93   am
    93   116   114   ar
    94   123   122   ar
    95   126   124   ar
    96    75    77   ar
    97    75    76   ar
    98   113   111   ar
    99    77    79   ar
   100    91    92    1
   101    93    92    1
   102    93    94    2
   103    92    95    1
   104   101   102    2
   105    76    78   ar
   106   122   124   ar
   107   122   121    1
   108   114   112   ar
   109   111   112   ar
   110   111   110    1
   111    79    80   ar
   112    95    97    1
   113    95    96    1
   114   110   107    1
   115   121   118    1
   116    78    80   ar
   117   118   119    1
   118   118   117    1
   119    96    98    1
   120    80    81    1
   121   107   106    1
   122   107   108    1
   123   119   120    2
   124   108   109    2
   125   148   146    1
   126   146   147    1
   127   146   143    1
   128   134   133    1
   129   145   144    2
   130   132   131    2
   131   142   143    1
   132   142   137   am
   133   143   144    1
   134   129   130    1
   135   131   130    1
   136   131   135   am
   137   133   130    1
   138   136   137    1
   139   136   135    1
   140   136   139    1
   141   137   138    2
   142   140   139    1
   143   139   141    1
