@<TRIPOS>MOLECULE
tmp/1shlB00.pdb
 88 84 0 0 0
SMALL
GASTEIGER

@<TRIPOS>ATOM
      1  N         49.2010    3.6270   10.8930 N.3   103  ILE103     -0.1245
      2  CA        49.5400    4.6380   11.8940 C.3   103  ILE103      0.1561
      3  C         48.3670    5.5630   12.1690 C.2   103  ILE103      0.2260
      4  O         48.2370    6.1020   13.2670 O.2   103  ILE103     -0.2867
      5  CB        50.8030    5.4350   11.4460 C.3   103  ILE103      0.0252
      6  CG1       52.0730    4.7250   11.9230 C.3   103  ILE103      0.0019
      7  CG2       50.7910    6.8740   11.9560 C.3   103  ILE103      0.0019
      8  CD1       53.2410    4.8320   10.9560 C.3   103  ILE103      0.0001
      9  N         57.4010    8.6280   16.3800 N.3   127  ILE127     -0.1245
     10  CA        57.4760    7.3090   15.7690 C.3   127  ILE127      0.1561
     11  C         58.8910    7.0270   15.3050 C.2   127  ILE127      0.2260
     12  O         59.4960    7.8350   14.6080 O.2   127  ILE127     -0.2867
     13  CB        56.4770    7.1870   14.5960 C.3   127  ILE127      0.0252
     14  CG1       55.0410    7.2830   15.1020 C.3   127  ILE127      0.0019
     15  CG2       56.6480    5.8680   13.8720 C.3   127  ILE127      0.0019
     16  CD1       54.3380    8.4990   14.6390 C.3   127  ILE127      0.0001
     17  N         48.1870   10.1590    7.1600 N.3   133  ILE133     -0.1231
     18  CA        47.3450   11.3570    7.1760 C.3   133  ILE133      0.1678
     19  C         46.2880   11.3070    8.3090 C.2   133  ILE133      0.2434
     20  O         45.1620   10.8400    8.0890 O.2   133  ILE133     -0.2733
     21  CB        46.6730   11.5790    5.7650 C.3   133  ILE133      0.0265
     22  CG1       47.7310   11.6650    4.6530 C.3   133  ILE133      0.0019
     23  CG2       45.7740   12.8270    5.7560 C.3   133  ILE133      0.0020
     24  CD1       47.1560   11.8170    3.2500 C.3   133  ILE133      0.0001
     25  N         46.6610   11.7090    9.5300 N.am  134  PRO134     -0.2718
     26  CA        45.6900   12.1030   10.5670 C.3   134  PRO134      0.1535
     27  C         45.5920   13.6340   10.7690 C.2   134  PRO134      0.2598
     28  O         46.0790   14.1620   11.7780 O.2   134  PRO134     -0.2715
     29  CB        46.2290   11.4100   11.8260 C.3   134  PRO134      0.0310
     30  CG        47.6930   11.0470   11.4890 C.3   134  PRO134      0.0237
     31  CD        48.0360   11.6150   10.0960 C.3   134  PRO134      0.0939
     32  N         44.9340   14.3160    9.8250 N.am  135  VAL135     -0.1978
     33  CA        44.9310   15.7910    9.7300 C.3   135  VAL135      0.1596
     34  C         43.9650   16.5250   10.6890 C.2   135  VAL135      0.2287
     35  O         42.8360   16.8840   10.3150 O.2   135  VAL135     -0.2864
     36  CB        44.6900   16.2720    8.2560 C.3   135  VAL135      0.0276
     37  CG1       44.7880   17.7980    8.1430 C.3   135  VAL135      0.0022
     38  CG2       45.6780   15.6220    7.3050 C.3   135  VAL135      0.0022
     39  N         53.6770   15.1340   14.7870 N.3   141  PHE141     -0.1241
     40  CA        54.3390   13.8720   14.5080 C.3   141  PHE141      0.1605
     41  C         55.8250   14.0940   14.2990 C.2   141  PHE141      0.2264
     42  O         56.2310   14.9320   13.4940 O.2   141  PHE141     -0.2867
     43  CB        53.7180   13.2170   13.2720 C.3   141  PHE141      0.0534
     44  CG        52.2710   12.8600   13.4440 C.ar  141  PHE141     -0.0203
     45  CD1       51.9070   11.5930   13.8740 C.ar  141  PHE141     -0.0042
     46  CD2       51.2710   13.7940   13.1910 C.ar  141  PHE141     -0.0042
     47  CE1       50.5780   11.2600   14.0470 C.ar  141  PHE141     -0.0003
     48  CE2       49.9360   13.4640   13.3650 C.ar  141  PHE141     -0.0003
     49  CZ        49.5940   12.1970   13.7990 C.ar  141  PHE141     -0.0000
     50  N         58.5120   11.7740   12.9730 N.3   143  TYR143     -0.1241
     51  CA        58.7340   10.4900   12.3140 C.3   143  TYR143      0.1605
     52  C         60.2070   10.3780   11.9690 C.2   143  TYR143      0.2264
     53  O         60.8050   11.3350   11.4930 O.2   143  TYR143     -0.2867
     54  CB        57.8720   10.4030   11.0470 C.3   143  TYR143      0.0534
     55  CG        57.5870    9.0070   10.5400 C.ar  143  TYR143     -0.0201
     56  CD1       58.3880    8.4230    9.5560 C.ar  143  TYR143     -0.0009
     57  CD2       56.5050    8.2780   11.0230 C.ar  143  TYR143     -0.0009
     58  CE1       58.1240    7.1410    9.0760 C.ar  143  TYR143      0.0417
     59  CE2       56.2330    7.0010   10.5510 C.ar  143  TYR143      0.0417
     60  CZ        57.0470    6.4360    9.5810 C.ar  143  TYR143      0.1957
     61  OH        56.7780    5.1640    9.1180 O.3   143  TYR143     -0.2866
     62  N         61.5960   14.0910   10.3520 N.3   187  CYS187     -0.1235
     63  CA        60.7610   15.1310    9.7790 C.3   187  CYS187      0.1677
     64  C         59.9220   15.6400   10.9180 C.2   187  CYS187      0.2270
     65  O         59.5640   14.9250   11.8620 O.2   187  CYS187     -0.2867
     66  CB        59.8730   14.5240    8.7080 C.3   187  CYS187      0.0956
     67  SG        58.8490   13.2530    9.4660 S.3   187  CYS187     -0.0801
     68  N         55.7800   16.8260   11.2650 N.3   189  VAL189     -0.1231
     69  CA        54.5180   17.2690   10.7180 C.3   189  VAL189      0.1692
     70  C         53.8110   17.9680   11.8620 C.2   189  VAL189      0.2593
     71  O         53.5110   17.3470   12.8810 O.2   189  VAL189     -0.2718
     72  CB        53.6800   16.1020   10.1370 C.3   189  VAL189      0.0266
     73  CG1       52.3760   16.6120    9.5560 C.3   189  VAL189      0.0020
     74  CG2       54.4550   15.3650    9.0680 C.3   189  VAL189      0.0020
     75  N         53.5810   19.2690   11.7170 N.am  190  SER190     -0.1938
     76  CA        52.9380   20.0190   12.7890 C.3   190  SER190      0.2055
     77  C         51.5650   20.5240   12.3990 C.2   190  SER190      0.2642
     78  O         51.3810   21.0970   11.3250 O.2   190  SER190     -0.2714
     79  CB        53.8080   21.1810   13.2670 C.3   190  SER190      0.2130
     80  OG        53.2710   21.7500   14.4530 O.3   190  SER190     -0.2179
     81  N         50.6060   20.2730   13.2820 N.am  191  MET191     -0.1976
     82  CA        49.2550   20.8000   13.1680 C.3   191  MET191      0.1605
     83  C         48.9850   21.6380   14.4060 C.2   191  MET191      0.2287
     84  O         47.8340   21.9990   14.6830 O.2   191  MET191     -0.2864
     85  CB        48.2380   19.6600   13.1020 C.3   191  MET191      0.0413
     86  CG        47.7220   19.3380   11.7120 C.3   191  MET191      0.0598
     87  SD        48.8030   18.1710   10.8920 S.3   191  MET191     -0.1393
     88  CE        47.9000   16.6920   11.0500 C.3   191  MET191      0.0692
@<TRIPOS>BOND
     1    24    22    1
     2    22    21    1
     3    23    21    1
     4    21    18    1
     5    17    18    1
     6    18    19    1
     7    38    36    1
     8    20    19    2
     9    37    36    1
    10    36    33    1
    11    19    25   am
    12    66    67    1
    13    66    63    1
    14    74    72    1
    15    58    56   ar
    16    58    60   ar
    17    61    60    1
    18    25    31    1
    19    25    26    1
    20    56    55   ar
    21    73    72    1
    22    60    59   ar
    23    33    32    1
    24    33    34    1
    25    63    62    1
    26    63    64    1
    27    32    27   am
    28    31    30    1
    29    72    69    1
    30    35    34    2
    31    55    57   ar
    32    55    54    1
    33    59    57   ar
    34    26    27    1
    35    26    29    1
    36    69    68    1
    37    69    70    1
    38    27    28    2
    39    87    88    1
    40    87    86    1
    41     1     2    1
    42    64    65    2
    43     8     6    1
    44    54    51    1
    45    78    77    2
    46     5     2    1
    47     5     6    1
    48     5     7    1
    49    30    29    1
    50    53    52    2
    51    86    85    1
    52    75    70   am
    53    75    76    1
    54    70    71    2
    55     2     3    1
    56    52    51    1
    57     3     4    2
    58    51    50    1
    59    77    76    1
    60    77    81   am
    61    76    79    1
    62    85    82    1
    63    82    81    1
    64    82    83    1
    65    46    48   ar
    66    46    44   ar
    67    79    80    1
    68    43    44    1
    69    43    40    1
    70    48    49   ar
    71    44    45   ar
    72    42    41    2
    73    49    47   ar
    74    15    13    1
    75    45    47   ar
    76    41    40    1
    77    83    84    2
    78    40    39    1
    79    13    14    1
    80    13    10    1
    81    12    11    2
    82    16    14    1
    83    11    10    1
    84    10     9    1
