@<TRIPOS>MOLECULE
tmp/1shzC00.pdb
 179 171 0 0 0
SMALL
GASTEIGER

@<TRIPOS>ATOM
      1  N         46.4440  -13.1800   -9.1180 N.3    12  ALA12      -0.1231
      2  CA        47.2640  -12.1790   -8.4500 C.3    12  ALA12       0.1694
      3  C         48.7620  -12.4580   -8.6020 C.2    12  ALA12       0.2593
      4  O         49.1610  -13.4900   -9.1320 O.2    12  ALA12      -0.2718
      5  CB        46.8890  -12.1050   -6.9900 C.3    12  ALA12       0.0304
      6  N         49.5900  -11.5400   -8.1270 N.am   13  GLY13      -0.1942
      7  CA        51.0200  -11.7290   -8.2350 C.3    13  GLY13       0.2014
      8  C         51.5960  -12.9960   -7.6350 C.2    13  GLY13       0.2639
      9  O         51.0240  -13.6180   -6.7330 O.2    13  GLY13      -0.2714
     10  N         52.7630  -13.3540   -8.1600 N.am   14  GLU14      -0.1963
     11  CA        53.5260  -14.5240   -7.7590 C.3    14  GLU14       0.1733
     12  C         52.6790  -15.7970   -7.7620 C.2    14  GLU14       0.2617
     13  O         53.0090  -16.7730   -7.0970 O.2    14  GLU14      -0.2715
     14  CB        54.1630  -14.3000   -6.3720 C.3    14  GLU14       0.0429
     15  CG        55.5880  -14.9010   -6.2260 C.3    14  GLU14       0.1163
     16  CD        55.7850  -15.7920   -4.9860 C.2    14  GLU14       0.3649
     17  OE1       55.7540  -15.2740   -3.8450 O.co2  14  GLU14      -0.2457
     18  OE2       55.9800  -17.0170   -5.1580 O.co2  14  GLU14      -0.2457
     19  N         51.5940  -15.7850   -8.5270 N.am   15  SER15      -0.1936
     20  CA        50.7060  -16.9340   -8.6280 C.3    15  SER15       0.2055
     21  C         51.3340  -18.1420   -9.3930 C.2    15  SER15       0.2644
     22  O         51.3180  -19.2790   -8.9120 O.2    15  SER15      -0.2714
     23  CB        49.4100  -16.4970   -9.3030 C.3    15  SER15       0.2130
     24  OG        48.4150  -17.4860   -9.1670 O.3    15  SER15      -0.2179
     25  N         51.8900  -17.8980  -10.5700 N.am   16  GLY16      -0.1939
     26  CA        52.4720  -18.9830  -11.3260 C.3    16  GLY16       0.2014
     27  C         52.1410  -18.8810  -12.8050 C.2    16  GLY16       0.2639
     28  O         52.4790  -19.7540  -13.6070 O.2    16  GLY16      -0.2714
     29  N         51.4910  -17.7780  -13.1640 N.am   17  LYS17      -0.1963
     30  CA        51.0780  -17.5120  -14.5260 C.3    17  LYS17       0.1728
     31  C         52.1540  -17.6600  -15.5890 C.2    17  LYS17       0.2617
     32  O         51.8860  -18.1540  -16.6790 O.2    17  LYS17      -0.2715
     33  CB        50.4890  -16.1120  -14.6160 C.3    17  LYS17       0.0311
     34  CG        49.2530  -15.9550  -13.7710 C.3    17  LYS17       0.0038
     35  CD        48.5690  -14.5990  -13.9460 C.3    17  LYS17       0.0206
     36  CE        49.0670  -13.5420  -12.9550 C.3    17  LYS17       0.1093
     37  NZ        50.3190  -12.8980  -13.3990 N.3    17  LYS17      -0.1314
     38  N         53.3690  -17.2330  -15.2890 N.am   18  SER18      -0.1936
     39  CA        54.4390  -17.3040  -16.2690 C.3    18  SER18       0.2055
     40  C         55.1010  -18.6710  -16.3200 C.2    18  SER18       0.2643
     41  O         55.4410  -19.1660  -17.4000 O.2    18  SER18      -0.2714
     42  CB        55.4700  -16.2080  -15.9910 C.3    18  SER18       0.2130
     43  OG        54.9150  -14.9290  -16.2420 O.3    18  SER18      -0.2179
     44  N         55.2710  -19.2830  -15.1530 N.am   19  THR19      -0.1950
     45  CA        55.8710  -20.6080  -15.0650 C.3    19  THR19       0.1897
     46  C         55.1510  -21.5140  -16.0550 C.2    19  THR19       0.2313
     47  O         55.7800  -22.2390  -16.8190 O.2    19  THR19      -0.2863
     48  CB        55.6970  -21.1990  -13.6580 C.3    19  THR19       0.1794
     49  OG1       56.0470  -20.2100  -12.6820 O.3    19  THR19      -0.2208
     50  CG2       56.5940  -22.4030  -13.4760 C.3    19  THR19       0.0378
     51  N         60.5650  -17.5610   -2.1420 N.3   128  GLU128     -0.1231
     52  CA        60.9910  -18.8850   -1.6630 C.3   128  GLU128      0.1699
     53  C         61.7780  -19.7010   -2.7050 C.2   128  GLU128      0.2592
     54  O         62.4890  -20.6470   -2.3610 O.2   128  GLU128     -0.2718
     55  CB        59.7670  -19.6840   -1.1910 C.3   128  GLU128      0.0402
     56  CG        58.9070  -20.2910   -2.3200 C.3   128  GLU128      0.1161
     57  CD        58.5980  -19.3230   -3.4780 C.2   128  GLU128      0.3649
     58  OE1       58.1020  -18.2020   -3.2220 O.co2 128  GLU128     -0.2457
     59  OE2       58.8420  -19.6970   -4.6500 O.co2 128  GLU128     -0.2457
     60  N         61.6420  -19.3260   -3.9760 N.am  129  SER129     -0.1952
     61  CA        62.3470  -19.9910   -5.0720 C.3   129  SER129      0.1924
     62  C         63.8480  -19.7150   -4.9800 C.2   129  SER129      0.2314
     63  O         64.6460  -20.2860   -5.7290 O.2   129  SER129     -0.2863
     64  CB        61.8240  -19.4790   -6.4200 C.3   129  SER129      0.2116
     65  OG        62.4880  -20.1140   -7.5010 O.3   129  SER129     -0.2180
     66  N         62.4640  -22.7400  -15.0500 N.3   153  LEU153     -0.1231
     67  CA        61.1050  -22.8180  -14.5440 C.3   153  LEU153      0.1693
     68  C         60.9620  -22.1180  -13.2060 C.2   153  LEU153      0.2592
     69  O         59.9090  -21.5440  -12.9090 O.2   153  LEU153     -0.2718
     70  CB        60.6700  -24.2740  -14.4220 C.3   153  LEU153      0.0284
     71  CG        60.3830  -24.9230  -15.7750 C.3   153  LEU153      0.0019
     72  CD1       60.3100  -26.4180  -15.6360 C.3   153  LEU153      0.0001
     73  CD2       59.0780  -24.3870  -16.3130 C.3   153  LEU153      0.0001
     74  N         62.0290  -22.1590  -12.4080 N.am  154  LEU154     -0.1966
     75  CA        62.0390  -21.5240  -11.0920 C.3   154  LEU154      0.1728
     76  C         62.4870  -20.0730  -11.0900 C.2   154  LEU154      0.2616
     77  O         62.2040  -19.3540  -10.1370 O.2   154  LEU154     -0.2715
     78  CB        62.9050  -22.3070  -10.1130 C.3   154  LEU154      0.0311
     79  CG        62.1370  -23.4170   -9.4060 C.3   154  LEU154      0.0022
     80  CD1       62.5560  -24.7570   -9.9500 C.3   154  LEU154      0.0001
     81  CD2       62.4280  -23.3550   -7.9220 C.3   154  LEU154      0.0001
     82  N         63.1890  -19.6470  -12.1380 N.am  155  ALA155     -0.1963
     83  CA        63.6590  -18.2630  -12.2420 C.3   155  ALA155      0.1728
     84  C         62.5030  -17.2470  -12.1970 C.2   155  ALA155      0.2616
     85  O         61.6580  -17.2010  -13.0950 O.2   155  ALA155     -0.2715
     86  CB        64.4630  -18.0910  -13.5260 C.3   155  ALA155      0.0334
     87  N         62.4670  -16.4360  -11.1470 N.am  156  ARG156     -0.1963
     88  CA        61.4240  -15.4270  -10.9960 C.3   156  ARG156      0.1729
     89  C         61.7530  -14.1970  -11.8160 C.2   156  ARG156      0.2616
     90  O         62.8890  -13.7290  -11.8200 O.2   156  ARG156     -0.2715
     91  CB        61.2880  -15.0280   -9.5290 C.3   156  ARG156      0.0348
     92  CG        60.5410  -13.7330   -9.2950 C.3   156  ARG156      0.0492
     93  CD        59.0630  -13.8620   -9.5480 C.3   156  ARG156      0.2205
     94  NE        58.4650  -12.5460   -9.6640 N.pl3 156  ARG156     -0.0865
     95  CZ        57.1610  -12.3230   -9.7340 C.cat 156  ARG156      0.5346
     96  NH1       56.3220  -13.3390   -9.7070 N.pl3 156  ARG156      0.1354
     97  NH2       56.6920  -11.0810   -9.7850 N.pl3 156  ARG156      0.1354
     98  N         60.7510  -13.6640  -12.4970 N.am  157  ARG157     -0.1977
     99  CA        60.9380  -12.4890  -13.3310 C.3   157  ARG157      0.1597
    100  C         59.6100  -11.7220  -13.3430 C.2   157  ARG157      0.2287
    101  O         58.6510  -12.1440  -13.9950 O.2   157  ARG157     -0.2864
    102  CB        61.3290  -12.9530  -14.7340 C.3   157  ARG157      0.0334
    103  CG        62.1630  -11.9950  -15.5450 C.3   157  ARG157      0.0492
    104  CD        62.9040  -12.7720  -16.6100 C.3   157  ARG157      0.2205
    105  NE        63.5830  -11.8920  -17.5480 N.pl3 157  ARG157     -0.0865
    106  CZ        64.3280  -12.3160  -18.5630 C.cat 157  ARG157      0.5346
    107  NH1       64.4920  -13.6170  -18.7730 N.pl3 157  ARG157      0.1354
    108  NH2       64.9080  -11.4320  -19.3690 N.pl3 157  ARG157      0.1354
    109  N         56.5450   -9.7510  -14.1440 N.3   159  THR159     -0.1218
    110  CA        55.8640   -9.4900  -15.3990 C.3   159  THR159      0.1862
    111  C         55.0200   -8.2260  -15.4070 C.2   159  THR159      0.2287
    112  O         54.1780   -8.0010  -14.5320 O.2   159  THR159     -0.2866
    113  CB        54.9630  -10.7070  -15.7960 C.3   159  THR159      0.1770
    114  OG1       55.7910  -11.7950  -16.2300 O.3   159  THR159     -0.2211
    115  CG2       53.9840  -10.3300  -16.9090 C.3   159  THR159      0.0375
    116  N         50.1780   -9.6470  -12.4540 N.3   181  GLY181     -0.1210
    117  CA        49.2500   -9.9030  -11.3750 C.3   181  GLY181      0.1956
    118  C         49.0040   -8.7770  -10.3830 C.2   181  GLY181      0.2611
    119  O         47.9210   -8.7000   -9.8110 O.2   181  GLY181     -0.2717
    120  N         49.9770   -7.8920  -10.1740 N.am  182  GLN182     -0.1979
    121  CA        49.7990   -6.8120   -9.2040 C.3   182  GLN182      0.1601
    122  C         48.6510   -5.8740   -9.5300 C.2   182  GLN182      0.2287
    123  O         48.2630   -5.7690  -10.6840 O.2   182  GLN182     -0.2864
    124  CB        51.0790   -6.0040   -9.0670 C.3   182  GLN182      0.0394
    125  CG        52.2170   -6.7720   -8.4320 C.3   182  GLN182      0.0908
    126  CD        52.9140   -7.7270   -9.3820 C.2   182  GLN182      0.2608
    127  OE1       52.9120   -7.5270  -10.5880 O.2   182  GLN182     -0.2717
    128  NE2       53.5190   -8.7620   -8.8370 N.am  182  GLN182     -0.0878
    129  N         47.4990  -23.6220   -7.8390 N.3   247  ASN247     -0.1225
    130  CA        48.9290  -23.8080   -7.9440 C.3   247  ASN247      0.1785
    131  C         49.6470  -23.9430   -6.6140 C.2   247  ASN247      0.2597
    132  O         49.0700  -23.6880   -5.5560 O.2   247  ASN247     -0.2718
    133  CB        49.5040  -22.6450   -8.7240 C.3   247  ASN247      0.1169
    134  CG        50.7300  -23.0210   -9.4700 C.2   247  ASN247      0.2627
    135  OD1       50.8550  -24.1420   -9.9440 O.2   247  ASN247     -0.2716
    136  ND2       51.6490  -22.0810   -9.6020 N.am  247  ASN247     -0.0877
    137  N         50.9200  -24.3250   -6.6790 N.am  248  LYS248     -0.1980
    138  CA        51.7240  -24.5150   -5.4840 C.3   248  LYS248      0.1596
    139  C         51.1110  -25.5500   -4.5230 C.2   248  LYS248      0.2287
    140  O         50.9440  -25.2880   -3.3310 O.2   248  LYS248     -0.2864
    141  CB        51.9260  -23.1780   -4.7760 C.3   248  LYS248      0.0298
    142  CG        52.9860  -22.3070   -5.4220 C.3   248  LYS248      0.0038
    143  CD        52.3850  -21.0420   -5.9830 C.3   248  LYS248      0.0206
    144  CE        53.4540  -20.0930   -6.4650 C.3   248  LYS248      0.1093
    145  NZ        54.4650  -19.8040   -5.4180 N.3   248  LYS248     -0.1314
    146  N         52.4570  -28.5480   -3.9320 N.3   250  ASP250     -0.1225
    147  CA        53.6040  -29.0900   -3.2220 C.3   250  ASP250      0.1805
    148  C         54.0020  -28.2170   -2.0340 C.2   250  ASP250      0.2597
    149  O         54.2180  -28.7170   -0.9280 O.2   250  ASP250     -0.2718
    150  CB        54.7890  -29.2260   -4.1830 C.3   250  ASP250      0.1424
    151  CG        55.1400  -27.9110   -4.8780 C.2   250  ASP250      0.3668
    152  OD1       54.2130  -27.2230   -5.3580 O.co2 250  ASP250     -0.2456
    153  OD2       56.3420  -27.5720   -4.9600 O.co2 250  ASP250     -0.2456
    154  N         54.1130  -26.9150   -2.2670 N.am  251  LEU251     -0.1979
    155  CA        54.4870  -25.9960   -1.2050 C.3   251  LEU251      0.1596
    156  C         53.3930  -26.0220   -0.1640 C.2   251  LEU251      0.2287
    157  O         53.6630  -26.1110    1.0290 O.2   251  LEU251     -0.2864
    158  CB        54.6480  -24.5700   -1.7430 C.3   251  LEU251      0.0297
    159  CG        55.7650  -24.3160   -2.7540 C.3   251  LEU251      0.0022
    160  CD1       55.8830  -22.8330   -3.0810 C.3   251  LEU251      0.0001
    161  CD2       57.0550  -24.8180   -2.1630 C.3   251  LEU251      0.0001
    162  N         50.8000  -27.6640  -10.1570 N.3   303  CYS303     -0.1221
    163  CA        52.1160  -27.4590   -9.5810 C.3   303  CYS303      0.1808
    164  C         53.0150  -27.0750  -10.7610 C.2   303  CYS303      0.2601
    165  O         53.8730  -27.8490  -11.1700 O.2   303  CYS303     -0.2717
    166  CB        52.5790  -28.7660   -8.9450 C.3   303  CYS303      0.0970
    167  SG        54.1190  -28.6910   -8.0460 S.3   303  CYS303     -0.0800
    168  N         52.7920  -25.8730  -11.2950 N.am  304  ALA304     -0.1965
    169  CA        53.4990  -25.3380  -12.4620 C.3   304  ALA304      0.1728
    170  C         54.9610  -25.6890  -12.6800 C.2   304  ALA304      0.2616
    171  O         55.4180  -25.7260  -13.8190 O.2   304  ALA304     -0.2715
    172  CB        53.3400  -23.8420  -12.5040 C.3   304  ALA304      0.0334
    173  N         55.7160  -25.9270  -11.6170 N.am  305  THR305     -0.1951
    174  CA        57.1230  -26.2730  -11.8040 C.3   305  THR305      0.1897
    175  C         57.3870  -27.7440  -12.1870 C.2   305  THR305      0.2313
    176  O         58.4610  -28.0730  -12.6920 O.2   305  THR305     -0.2863
    177  CB        57.9440  -25.9370  -10.5520 C.3   305  THR305      0.1794
    178  OG1       57.1720  -26.2300   -9.3800 O.3   305  THR305     -0.2208
    179  CG2       58.3510  -24.4730  -10.5600 C.3   305  THR305      0.0378
@<TRIPOS>BOND
     1   108   106    1
     2   107   106    1
     3   106   105    2
     4   105   104    1
     5    41    40    2
     6   115   113    1
     7    47    46    2
     8    32    31    2
     9   104   103    1
    10    40    39    1
    11    40    44   am
    12    73    71    1
    13    39    42    1
    14    39    38    1
    15    43    42    1
    16   114   113    1
    17    46    45    1
    18   113   110    1
    19    71    72    1
    20    71    70    1
    21    31    38   am
    22    31    30    1
    23   103   102    1
    24   111   110    1
    25   111   112    2
    26   110   109    1
    27    44    45    1
    28    45    48    1
    29    66    67    1
    30   102    99    1
    31    33    30    1
    32    33    34    1
    33    67    70    1
    34    67    68    1
    35    30    29    1
    36   101   100    2
    37    35    34    1
    38    35    36    1
    39   171   170    2
    40    48    50    1
    41    48    49    1
    42    28    27    2
    43    86    83    1
    44    37    36    1
    45   100    99    1
    46    99    98    1
    47    68    69    2
    48    68    74   am
    49    29    27   am
    50    85    84    2
    51    27    26    1
    52   176   175    2
    53   170   169    1
    54   170   173   am
    55   172   169    1
    56    98    89   am
    57   169   168    1
    58   116   117    1
    59    74    75    1
    60    83    84    1
    61    83    82    1
    62    84    87   am
    63   175   174    1
    64    82    76   am
    65    90    89    2
    66    89    88    1
    67   174   173    1
    68   174   177    1
    69   117   118    1
    70    26    25    1
    71   168   164   am
    72   165   164    2
    73    87    88    1
    74    75    76    1
    75    75    78    1
    76    76    77    2
    77    88    91    1
    78   164   163    1
    79   123   122    2
    80   127   126    2
    81    25    21   am
    82   179   177    1
    83   177   178    1
    84   118   120   am
    85   118   119    2
    86   120   121    1
    87   162   163    1
    88    78    79    1
    89    80    79    1
    90   135   134    2
    91    97    95    1
    92    95    96    1
    93    95    94    2
    94    94    93    1
    95   136   134   am
    96   163   166    1
    97    93    92    1
    98   122   121    1
    99    91    92    1
   100   134   133    1
   101    79    81    1
   102    21    22    2
   103    21    20    1
   104   126   128   am
   105   126   125    1
   106    23    24    1
   107    23    20    1
   108   121   124    1
   109     4     3    2
   110     1     2    1
   111   124   125    1
   112   166   167    1
   113   133   130    1
   114    20    19    1
   115     3     2    1
   116     3     6   am
   117    19    12   am
   118     2     5    1
   119     7     6    1
   120     7     8    1
   121    10    11    1
   122    10     8   am
   123   130   129    1
   124   130   131    1
   125    12    11    1
   126    12    13    2
   127    11    14    1
   128     8     9    2
   129    65    64    1
   130   137   131   am
   131   137   138    1
   132   131   132    2
   133   144   143    1
   134   144   145    1
   135    64    61    1
   136    14    15    1
   137    15    16    1
   138   143   142    1
   139    63    62    2
   140   138   141    1
   141   138   139    1
   142   142   141    1
   143   152   151   ar
   144    18    16   ar
   145    61    62    1
   146    61    60    1
   147    16    17   ar
   148   153   151   ar
   149   151   150    1
   150    59    57   ar
   151   139   140    2
   152   150   147    1
   153    60    53   am
   154   146   147    1
   155    57    58   ar
   156    57    56    1
   157   147   148    1
   158   160   159    1
   159   159   161    1
   160   159   158    1
   161    53    54    2
   162    53    52    1
   163    56    55    1
   164   154   148   am
   165   154   155    1
   166    51    52    1
   167   148   149    2
   168   158   155    1
   169    52    55    1
   170   155   156    1
   171   156   157    2
