@<TRIPOS>MOLECULE
tmp/1sidE00.pdb
 118 109 0 0 0
SMALL
GASTEIGER

@<TRIPOS>ATOM
      1  N         26.0570   -0.7230  239.3740 N.3    52  GLU52      -0.1245
      2  CA        27.4580   -1.1060  239.4540 C.3    52  GLU52       0.1567
      3  C         28.2290   -0.4100  238.3380 C.2    52  GLU52       0.2260
      4  O         29.3490    0.0760  238.5410 O.2    52  GLU52      -0.2867
      5  CB        27.5930   -2.6270  239.3400 C.3    52  GLU52       0.0388
      6  CG        26.7340   -3.2590  238.2440 C.3    52  GLU52       0.1160
      7  CD        25.7540   -4.3130  238.7730 C.2    52  GLU52       0.3649
      8  OE1       25.7530   -4.5860  240.0030 O.co2  52  GLU52      -0.2457
      9  OE2       24.9830   -4.8680  237.9460 O.co2  52  GLU52      -0.2457
     10  N         26.9690    2.0170  237.1190 N.3    54  GLY54      -0.1225
     11  CA        26.4990    3.3580  237.4200 C.3    54  GLY54       0.1811
     12  C         26.0290    4.0600  236.1730 C.2    54  GLY54       0.2280
     13  O         25.6020    5.2030  236.2110 O.2    54  GLY54      -0.2866
     14  N         27.3250    5.0600  233.2920 N.3    56  TYR56      -0.1241
     15  CA        28.2460    6.0520  232.9010 C.3    56  TYR56       0.1605
     16  C         28.2720    5.8450  231.3900 C.2    56  TYR56       0.2264
     17  O         28.7580    6.7080  230.6550 O.2    56  TYR56      -0.2867
     18  CB        29.5940    5.7080  233.5550 C.3    56  TYR56       0.0534
     19  CG        29.6380    5.9450  235.0650 C.ar   56  TYR56      -0.0201
     20  CD1       28.8840    6.9720  235.6440 C.ar   56  TYR56      -0.0009
     21  CD2       30.4550    5.1800  235.9070 C.ar   56  TYR56      -0.0009
     22  CE1       28.9350    7.2420  237.0150 C.ar   56  TYR56       0.0417
     23  CE2       30.5140    5.4440  237.2920 C.ar   56  TYR56       0.0417
     24  CZ        29.7420    6.4850  237.8300 C.ar   56  TYR56       0.1957
     25  OH        29.7390    6.7900  239.1730 O.3    56  TYR56      -0.2866
     26  N         34.7010    7.5620  232.0650 N.3    61  ARG61      -0.1231
     27  CA        34.4420    7.0930  233.4100 C.3    61  ARG61       0.1694
     28  C         34.7140    8.1870  234.4000 C.2    61  ARG61       0.2593
     29  O         33.8310    8.9450  234.7190 O.2    61  ARG61      -0.2718
     30  CB        35.2210    5.8200  233.7410 C.3    61  ARG61       0.0321
     31  CG        34.8780    5.1760  235.0950 C.3    61  ARG61       0.0489
     32  CD        33.5570    4.4210  235.1270 C.3    61  ARG61       0.2205
     33  NE        33.2760    3.9940  236.4910 N.pl3  61  ARG61      -0.0865
     34  CZ        33.1830    2.7260  236.8870 C.cat  61  ARG61       0.5346
     35  NH1       33.3320    1.7280  236.0160 N.pl3  61  ARG61       0.1354
     36  NH2       32.9900    2.4560  238.1740 N.pl3  61  ARG61       0.1354
     37  N         35.9100    8.2720  234.9200 N.am   62  GLY62      -0.1942
     38  CA        36.1460    9.3330  235.8480 C.3    62  GLY62       0.2014
     39  C         37.1850   10.0360  235.0780 C.2    62  GLY62       0.2639
     40  O         37.2920    9.8940  233.8660 O.2    62  GLY62      -0.2714
     41  N         38.0110   10.7390  235.7980 N.am   63  ILE63      -0.1963
     42  CA        39.0680   11.4410  235.1650 C.3    63  ILE63       0.1727
     43  C         40.3210   11.2010  235.9540 C.2    63  ILE63       0.2616
     44  O         40.5320   11.7720  237.0220 O.2    63  ILE63      -0.2715
     45  CB        38.7040   12.8890  235.0320 C.3    63  ILE63       0.0290
     46  CG1       37.9360   13.0410  233.7410 C.3    63  ILE63       0.0022
     47  CG2       39.9280   13.7560  234.9830 C.3    63  ILE63       0.0023
     48  CD1       38.6970   12.4770  232.5840 C.3    63  ILE63       0.0001
     49  N         41.1180   10.2700  235.4560 N.am   64  ASN64      -0.1972
     50  CA        42.3610    9.8980  236.1070 C.3    64  ASN64       0.1688
     51  C         43.4030   10.9890  235.9770 C.2    64  ASN64       0.2292
     52  O         43.8760   11.2750  234.8830 O.2    64  ASN64      -0.2864
     53  CB        42.8930    8.5990  235.5010 C.3    64  ASN64       0.1181
     54  CG        44.1680    8.0950  236.1820 C.2    64  ASN64       0.2629
     55  OD1       45.0990    7.6170  235.5230 O.2    64  ASN64      -0.2716
     56  ND2       44.1850    8.1390  237.5140 N.am   64  ASN64      -0.0877
     57  N         44.2790    5.3400  232.1940 N.3    75  GLY75      -0.1225
     58  CA        43.2130    4.5710  232.7920 C.3    75  GLY75       0.1811
     59  C         42.1620    4.5140  231.7230 C.2    75  GLY75       0.2280
     60  O         41.3350    5.3940  231.5700 O.2    75  GLY75      -0.2866
     61  N         39.3860    4.0100  231.0650 N.3    77  ASN77      -0.1225
     62  CA        38.0140    4.4280  231.1720 C.3    77  ASN77       0.1785
     63  C         38.0420    5.9390  231.2560 C.2    77  ASN77       0.2597
     64  O         37.0310    6.6170  231.4200 O.2    77  ASN77      -0.2718
     65  CB        37.4050    3.7800  232.4090 C.3    77  ASN77       0.1169
     66  CG        38.4460    3.0450  233.2490 C.2    77  ASN77       0.2627
     67  OD1       39.2160    2.2280  232.7260 O.2    77  ASN77      -0.2716
     68  ND2       38.5240    3.3760  234.5340 N.am   77  ASN77      -0.0877
     69  N         39.2180    6.4790  231.0540 N.am   78  THR78      -0.1953
     70  CA        39.3770    7.8980  231.1080 C.3    78  THR78       0.1897
     71  C         39.5720    8.2720  229.6830 C.2    78  THR78       0.2313
     72  O         39.6680    9.4480  229.3600 O.2    78  THR78      -0.2863
     73  CB        40.6670    8.2480  231.8270 C.3    78  THR78       0.1794
     74  OG1       40.6640    7.6140  233.1040 O.3    78  THR78      -0.2208
     75  CG2       40.8330    9.7610  231.9960 C.3    78  THR78       0.0378
     76  N         31.0840   16.6420  231.9660 N.3   273  ARG273     -0.1245
     77  CA        30.0790   16.7560  232.9980 C.3   273  ARG273      0.1563
     78  C         31.0140   16.7690  234.2090 C.2   273  ARG273      0.2260
     79  O         31.9750   15.9390  234.2010 O.2   273  ARG273     -0.2867
     80  CB        29.2100   15.4760  233.0130 C.3   273  ARG273      0.0307
     81  CG        28.3980   15.2920  234.2930 C.3   273  ARG273      0.0489
     82  CD        27.8680   13.8790  234.4680 C.3   273  ARG273      0.2205
     83  NE        27.9660   13.4630  235.8700 N.pl3 273  ARG273     -0.0865
     84  CZ        27.5260   12.3040  236.3690 C.cat 273  ARG273      0.5346
     85  NH1       26.9320   11.4010  235.5800 N.pl3 273  ARG273      0.1354
     86  NH2       27.6960   12.0450  237.6720 N.pl3 273  ARG273      0.1354
     87  N         31.2950   16.5140  238.4900 N.3   275  THR275     -0.1218
     88  CA        30.4740   16.0930  239.6440 C.3   275  THR275      0.1862
     89  C         30.3200   17.0730  240.8000 C.2   275  THR275      0.2287
     90  O         31.2960   17.5960  241.3580 O.2   275  THR275     -0.2866
     91  CB        30.9390   14.8320  240.2990 C.3   275  THR275      0.1770
     92  OG1       32.3540   14.8810  240.4140 O.3   275  THR275     -0.2211
     93  CG2       30.4710   13.6400  239.5290 C.3   275  THR275      0.0375
     94  N         30.4580   17.1140  243.6620 N.3   277  ASN277     -0.1240
     95  CA        31.0490   16.2220  244.6180 C.3   277  ASN277      0.1653
     96  C         32.4070   16.8220  244.7780 C.2   277  ASN277      0.2266
     97  O         32.6950   17.5610  245.7210 O.2   277  ASN277     -0.2867
     98  CB        31.1210   14.8170  243.9710 C.3   277  ASN277      0.1155
     99  CG        32.1960   13.9160  244.5810 C.2   277  ASN277      0.2627
    100  OD1       33.3890   14.1410  244.3910 O.2   277  ASN277     -0.2716
    101  ND2       31.7720   12.8490  245.2510 N.am  277  ASN277     -0.0877
    102  N         35.5800   15.8660  239.7250 N.3   280  VAL280     -0.1245
    103  CA        35.6390   14.6780  238.9230 C.3   280  VAL280      0.1561
    104  C         35.0630   15.2150  237.6410 C.2   280  VAL280      0.2260
    105  O         33.8880   15.5630  237.5570 O.2   280  VAL280     -0.2867
    106  CB        34.7080   13.6010  239.4420 C.3   280  VAL280      0.0252
    107  CG1       34.9240   12.3230  238.6330 C.3   280  VAL280      0.0019
    108  CG2       34.9030   13.3960  240.9600 C.3   280  VAL280      0.0019
    109  N         34.5030   13.7210  234.4990 N.3   282  HIS282     -0.1241
    110  CA        34.2400   12.8920  233.3080 C.3   282  HIS282      0.1621
    111  C         33.3140   13.3530  232.1620 C.2   282  HIS282      0.2264
    112  O         32.1470   13.6840  232.3680 O.2   282  HIS282     -0.2867
    113  CB        33.9920   11.4760  233.6880 C.3   282  HIS282      0.0745
    114  CG        32.9660   11.3160  234.7430 C.ar  282  HIS282      0.0817
    115  ND1       31.9100   10.4430  234.6050 N.ar  282  HIS282     -0.2268
    116  CD2       32.8820   11.8250  235.9920 C.ar  282  HIS282      0.1154
    117  CE1       31.2210   10.4140  235.7320 C.ar  282  HIS282      0.1986
    118  NE2       31.7910   11.2440  236.5890 N.ar  282  HIS282     -0.2212
@<TRIPOS>BOND
     1    72    71    2
     2    71    70    1
     3    17    16    2
     4    69    70    1
     5    69    63   am
     6    61    62    1
     7    70    73    1
     8    62    63    1
     9    62    65    1
    10    63    64    2
    11    16    15    1
    12    60    59    2
    13    59    58    1
    14    73    75    1
    15    73    74    1
    16    76    77    1
    17    26    27    1
    18   111   112    2
    19   111   110    1
    20    57    58    1
    21    65    66    1
    22    48    46    1
    23    67    66    2
    24    15    14    1
    25    15    18    1
    26    77    80    1
    27    77    78    1
    28    80    81    1
    29    66    68   am
    30   110   113    1
    31   110   109    1
    32    27    30    1
    33    27    28    1
    34    18    19    1
    35   113   114    1
    36    46    45    1
    37    30    31    1
    38    40    39    2
    39    79    78    2
    40    81    82    1
    41    28    29    2
    42    28    37   am
    43    82    83    1
    44   115   114   ar
    45   115   117   ar
    46   114   116   ar
    47    52    51    2
    48    37    38    1
    49    47    45    1
    50    45    42    1
    51    19    20   ar
    52    19    21   ar
    53    39    41   am
    54    39    38    1
    55    31    32    1
    56    32    33    1
    57    42    41    1
    58    42    43    1
    59    49    43   am
    60    49    50    1
    61    53    50    1
    62    53    54    1
    63    55    54    2
    64    85    84    1
    65    20    22   ar
    66   117   118   ar
    67    83    84    2
    68    21    23   ar
    69    43    44    2
    70    51    50    1
    71   116   118   ar
    72    35    34    1
    73    12    13    2
    74    12    11    1
    75    54    56   am
    76    84    86    1
    77    33    34    2
    78    34    36    1
    79    22    24   ar
    80    10    11    1
    81    23    24   ar
    82   105   104    2
    83   104   103    1
    84    24    25    1
    85     9     7   ar
    86     6     7    1
    87     6     5    1
    88     3     4    2
    89     3     2    1
    90    87    88    1
    91   107   106    1
    92     7     8   ar
    93   103   106    1
    94   103   102    1
    95     5     2    1
    96     1     2    1
    97   106   108    1
    98    93    91    1
    99    88    91    1
   100    88    89    1
   101    91    92    1
   102    89    90    2
   103    94    95    1
   104    98    99    1
   105    98    95    1
   106   100    99    2
   107    99   101   am
   108    95    96    1
   109    96    97    2
