@<TRIPOS>MOLECULE
tmp/1sieB00.pdb
 129 119 0 0 0
SMALL
GASTEIGER

@<TRIPOS>ATOM
      1  N         22.7100   63.2490  228.6290 N.3    56  TYR56      -0.1241
      2  CA        22.6300   61.8370  228.6260 C.3    56  TYR56       0.1605
      3  C         21.9300   61.6670  227.3080 C.2    56  TYR56       0.2264
      4  O         21.1980   60.7090  227.1020 O.2    56  TYR56      -0.2867
      5  CB        21.7220   61.4120  229.7760 C.3    56  TYR56       0.0534
      6  CG        22.2850   61.7540  231.1380 C.ar   56  TYR56      -0.0201
      7  CD1       23.6180   61.4640  231.4590 C.ar   56  TYR56      -0.0009
      8  CD2       21.5120   62.3860  232.1050 C.ar   56  TYR56      -0.0009
      9  CE1       24.1800   61.8060  232.7320 C.ar   56  TYR56       0.0417
     10  CE2       22.0630   62.7320  233.3860 C.ar   56  TYR56       0.0417
     11  CZ        23.3980   62.4420  233.6880 C.ar   56  TYR56       0.1957
     12  OH        23.9560   62.7960  234.9110 O.3    56  TYR56      -0.2866
     13  N         18.4860   56.9350  230.5940 N.3    61  ARG61      -0.1231
     14  CA        18.8180   57.8000  231.6990 C.3    61  ARG61       0.1694
     15  C         19.6340   57.0820  232.7670 C.2    61  ARG61       0.2593
     16  O         20.8460   57.2060  232.7980 O.2    61  ARG61      -0.2718
     17  CB        17.5640   58.4460  232.2470 C.3    61  ARG61       0.0321
     18  CG        17.8330   59.6830  233.0580 C.3    61  ARG61       0.0489
     19  CD        18.5990   60.7720  232.3180 C.3    61  ARG61       0.2205
     20  NE        19.0500   61.7060  233.3390 N.pl3  61  ARG61      -0.0865
     21  CZ        18.4870   62.8820  233.5970 C.cat  61  ARG61       0.5346
     22  NH1       17.4590   63.3020  232.8700 N.pl3  61  ARG61       0.1354
     23  NH2       18.8360   63.5520  234.6930 N.pl3  61  ARG61       0.1354
     24  N         18.9940   56.3200  233.6280 N.am   62  GLY62      -0.1942
     25  CA        19.7310   55.5910  234.6380 C.3    62  GLY62       0.2014
     26  C         18.9710   54.3100  234.6020 C.2    62  GLY62       0.2639
     27  O         18.1430   54.1420  233.7070 O.2    62  GLY62      -0.2714
     28  N         19.2330   53.3760  235.4940 N.am   63  ILE63      -0.1963
     29  CA        18.4180   52.1790  235.4110 C.3    63  ILE63       0.1727
     30  C         17.5280   51.9270  236.6160 C.2    63  ILE63       0.2616
     31  O         17.9520   51.4790  237.6820 O.2    63  ILE63      -0.2715
     32  CB        19.2020   50.9550  235.0040 C.3    63  ILE63       0.0290
     33  CG1       20.3190   51.3770  234.0620 C.3    63  ILE63       0.0022
     34  CG2       18.2740   50.0160  234.2010 C.3    63  ILE63       0.0023
     35  CD1       19.7870   51.8360  232.7470 C.3    63  ILE63       0.0001
     36  N         16.2770   52.3040  236.4230 N.am   64  ASN64      -0.1972
     37  CA        15.2250   52.1910  237.4150 C.3    64  ASN64       0.1688
     38  C         14.9190   50.7240  237.6240 C.2    64  ASN64       0.2292
     39  O         14.3260   50.0680  236.7560 O.2    64  ASN64      -0.2864
     40  CB        13.9900   52.9340  236.8910 C.3    64  ASN64       0.1181
     41  CG        12.8550   52.9900  237.8860 C.2    64  ASN64       0.2629
     42  OD1       11.7000   52.7730  237.5170 O.2    64  ASN64      -0.2716
     43  ND2       13.1590   53.3560  239.1310 N.am   64  ASN64      -0.0877
     44  N          6.4770   44.5420  242.6330 N.3    71  GLU71      -0.1245
     45  CA         6.4830   45.8430  242.0250 C.3    71  GLU71       0.1567
     46  C          7.6340   46.1460  241.0900 C.2    71  GLU71       0.2260
     47  O          8.7860   46.2970  241.5220 O.2    71  GLU71      -0.2867
     48  CB         6.4490   46.8910  243.1260 C.3    71  GLU71       0.0388
     49  CG         6.4580   48.2930  242.5880 C.3    71  GLU71       0.1160
     50  CD         6.5390   49.3220  243.6690 C.2    71  GLU71       0.3649
     51  OE1        6.5690   48.9230  244.8630 O.co2  71  GLU71      -0.2457
     52  OE2        6.5670   50.5420  243.3350 O.co2  71  GLU71      -0.2457
     53  N          8.3440   48.9540  238.4260 N.3    73  SER73      -0.1217
     54  CA         8.0430   50.1560  237.7120 C.3    73  SER73       0.1889
     55  C          9.3710   50.5490  237.1710 C.2    73  SER73       0.2288
     56  O         10.3550   50.5680  237.9030 O.2    73  SER73      -0.2866
     57  CB         7.5650   51.2780  238.6060 C.3    73  SER73       0.2089
     58  OG         7.5650   52.4950  237.8600 O.3    73  SER73      -0.2183
     59  N         11.4790   53.3810  234.8590 N.3    75  GLY75      -0.1225
     60  CA        11.3030   54.7820  234.5380 C.3    75  GLY75       0.1811
     61  C         11.0700   54.9700  233.0540 C.2    75  GLY75       0.2280
     62  O         11.3940   54.1130  232.2270 O.2    75  GLY75      -0.2866
     63  N         12.7160   56.5640  231.1460 N.3    77  ASN77      -0.1225
     64  CA        13.9930   56.8670  230.5120 C.3    77  ASN77       0.1785
     65  C         14.8970   55.7000  230.8260 C.2    77  ASN77       0.2597
     66  O         16.1260   55.7650  230.7370 O.2    77  ASN77      -0.2718
     67  CB        14.5480   58.1640  231.0510 C.3    77  ASN77       0.1169
     68  CG        13.7270   58.6870  232.1860 C.2    77  ASN77       0.2627
     69  OD1       12.7940   59.4550  231.9760 O.2    77  ASN77      -0.2716
     70  ND2       13.9830   58.1850  233.3850 N.am   77  ASN77      -0.0877
     71  N         14.2500   54.6370  231.2600 N.am   78  THR78      -0.1953
     72  CA        14.9160   53.4010  231.5330 C.3    78  THR78       0.1897
     73  C         14.2370   52.5990  230.4770 C.2    78  THR78       0.2313
     74  O         14.0630   51.3940  230.6190 O.2    78  THR78      -0.2863
     75  CB        14.4850   52.8340  232.8650 C.3    78  THR78       0.1794
     76  OG1       14.6200   53.8600  233.8510 O.3    78  THR78      -0.2208
     77  CG2       15.3410   51.6020  233.2450 C.3    78  THR78       0.0378
     78  N          4.0600   53.0870  232.6020 N.3   170  LYS170     -0.1245
     79  CA         3.1940   54.1990  232.8660 C.3   170  LYS170      0.1561
     80  C          2.1180   54.2380  231.8230 C.2   170  LYS170      0.2260
     81  O          2.2390   53.6420  230.7500 O.2   170  LYS170     -0.2867
     82  CB         3.9590   55.5040  232.9090 C.3   170  LYS170      0.0271
     83  CG         4.7940   55.6410  234.1580 C.3   170  LYS170      0.0035
     84  CD         6.2740   55.4220  233.8800 C.3   170  LYS170      0.0206
     85  CE         6.6340   53.9760  233.5000 C.3   170  LYS170      0.1093
     86  NZ         6.7580   53.0700  234.6850 N.3   170  LYS170     -0.1314
     87  N         26.4670   51.5450  229.4370 N.3   273  ARG273     -0.1245
     88  CA        27.6000   52.2810  229.9230 C.3   273  ARG273      0.1563
     89  C         27.3870   52.0420  231.4170 C.2   273  ARG273      0.2260
     90  O         26.2600   51.7180  231.8440 O.2   273  ARG273     -0.2867
     91  CB        27.3870   53.7920  229.5960 C.3   273  ARG273      0.0307
     92  CG        28.3500   54.7140  230.2990 C.3   273  ARG273      0.0489
     93  CD        27.9770   56.1790  230.2160 C.3   273  ARG273      0.2205
     94  NE        28.3650   56.8500  231.4610 N.pl3 273  ARG273     -0.0865
     95  CZ        28.2260   58.1560  231.7140 C.cat 273  ARG273      0.5346
     96  NH1       27.7090   58.9760  230.7920 N.pl3 273  ARG273      0.1354
     97  NH2       28.5650   58.6420  232.9150 N.pl3 273  ARG273      0.1354
     98  N         28.3190   53.7470  235.2700 N.3   275  THR275     -0.1218
     99  CA        28.9270   54.7430  236.1240 C.3   275  THR275      0.1862
    100  C         29.9040   54.2160  237.1180 C.2   275  THR275      0.2287
    101  O         29.5990   53.2680  237.8220 O.2   275  THR275     -0.2866
    102  CB        27.9110   55.4820  236.9280 C.3   275  THR275      0.1770
    103  OG1       26.9320   54.5340  237.3440 O.3   275  THR275     -0.2211
    104  CG2       27.3020   56.6200  236.1520 C.3   275  THR275      0.0375
    105  N         30.5270   55.5970  239.5510 N.3   277  ASN277     -0.1240
    106  CA        29.7430   55.9290  240.7190 C.3   277  ASN277      0.1653
    107  C         29.2410   54.6770  241.4570 C.2   277  ASN277      0.2266
    108  O         29.7560   54.2950  242.5220 O.2   277  ASN277     -0.2867
    109  CB        28.5750   56.8110  240.2380 C.3   277  ASN277      0.1155
    110  CG        27.3250   56.6740  241.0840 C.2   277  ASN277      0.2627
    111  OD1       26.4380   55.8760  240.7780 O.2   277  ASN277     -0.2716
    112  ND2       27.2300   57.4750  242.1310 N.am  277  ASN277     -0.0877
    113  N         25.0470   52.1910  238.2160 N.3   280  VAL280     -0.1245
    114  CA        23.9960   52.8300  237.4590 C.3   280  VAL280      0.1561
    115  C         24.4210   52.4370  236.0630 C.2   280  VAL280      0.2260
    116  O         25.3460   52.9810  235.4690 O.2   280  VAL280     -0.2867
    117  CB        23.9540   54.3480  237.6090 C.3   280  VAL280      0.0252
    118  CG1       22.5440   54.8250  237.2670 C.3   280  VAL280      0.0019
    119  CG2       24.3490   54.7700  239.0240 C.3   280  VAL280      0.0019
    120  N         23.2410   52.5780  232.8350 N.3   282  HIS282     -0.1241
    121  CA        22.5190   53.0010  231.6140 C.3   282  HIS282      0.1621
    122  C         23.0190   52.8450  230.1700 C.2   282  HIS282      0.2264
    123  O         24.0640   53.3740  229.7880 O.2   282  HIS282     -0.2867
    124  CB        21.9150   54.3530  231.8080 C.3   282  HIS282      0.0745
    125  CG        22.8380   55.3180  232.4450 C.ar  282  HIS282      0.0817
    126  ND1       23.6960   56.1090  231.7160 N.ar  282  HIS282     -0.2268
    127  CD2       22.9940   55.6770  233.7390 C.ar  282  HIS282      0.1154
    128  CE1       24.3310   56.9280  232.5340 C.ar  282  HIS282      0.1986
    129  NE2       23.9220   56.6860  233.7670 N.ar  282  HIS282     -0.2212
@<TRIPOS>BOND
     1     4     3    2
     2     3     2    1
     3     2     1    1
     4     2     5    1
     5    87    88    1
     6    91    88    1
     7    91    92    1
     8     5     6    1
     9   123   122    2
    10    88    89    1
    11   122   121    1
    12    93    92    1
    13    93    94    1
    14    73    74    2
    15    73    72    1
    16    64    65    1
    17    64    67    1
    18    64    63    1
    19    13    14    1
    20    66    65    2
    21    81    80    2
    22    96    95    1
    23    65    71   am
    24    67    68    1
    25     6     7   ar
    26     6     8   ar
    27    71    72    1
    28    89    90    2
    29     7     9   ar
    30    94    95    2
    31    72    75    1
    32   121   124    1
    33   121   120    1
    34    14    17    1
    35    14    15    1
    36    95    97    1
    37   126   125   ar
    38   126   128   ar
    39   124   125    1
    40    80    79    1
    41    69    68    2
    42     8    10   ar
    43    68    70   am
    44    62    61    2
    45    17    18    1
    46    19    18    1
    47    19    20    1
    48   125   127   ar
    49   128   129   ar
    50    78    79    1
    51     9    11   ar
    52    35    33    1
    53    15    16    2
    54    15    24   am
    55    75    77    1
    56    75    76    1
    57    79    82    1
    58    22    21    1
    59    82    83    1
    60    61    60    1
    61    20    21    2
    62    10    11   ar
    63    85    84    1
    64    85    86    1
    65    21    23    1
    66    24    25    1
    67    11    12    1
    68    27    26    2
    69   127   129   ar
    70    84    83    1
    71    33    32    1
    72    34    32    1
    73    60    59    1
    74    26    25    1
    75    26    28   am
    76    32    29    1
    77    98    99    1
    78    29    28    1
    79    29    30    1
    80   116   115    2
    81   115   114    1
    82    99   102    1
    83    99   100    1
    84   104   102    1
    85    36    30   am
    86    36    37    1
    87    30    31    2
    88    39    38    2
    89    40    37    1
    90    40    41    1
    91   102   103    1
    92   100   101    2
    93    55    54    1
    94    55    56    2
    95   118   117    1
    96    37    38    1
    97   114   117    1
    98   114   113    1
    99    42    41    2
   100   117   119    1
   101    54    53    1
   102    54    57    1
   103    58    57    1
   104    41    43   am
   105   105   106    1
   106   109   106    1
   107   109   110    1
   108   106   107    1
   109   111   110    2
   110   110   112   am
   111    46    47    2
   112    46    45    1
   113   107   108    2
   114    45    44    1
   115    45    48    1
   116    49    48    1
   117    49    50    1
   118    52    50   ar
   119    50    51   ar
