@<TRIPOS>MOLECULE
tmp/1sirA00.pdb
 222 213 0 0 0
SMALL
GASTEIGER

@<TRIPOS>ATOM
      1  N          0.6870   44.9430  -32.3410 N.3    97  VAL97      -0.1245
      2  CA         1.1330   45.2850  -33.6740 C.3    97  VAL97       0.1561
      3  C          2.3670   44.4310  -33.9880 C.2    97  VAL97       0.2260
      4  O          2.4060   43.7240  -34.9930 O.2    97  VAL97      -0.2867
      5  CB         1.4720   46.7990  -33.7550 C.3    97  VAL97       0.0252
      6  CG1        1.9360   47.1650  -35.1570 C.3    97  VAL97       0.0019
      7  CG2        0.2580   47.6180  -33.3770 C.3    97  VAL97       0.0019
      8  N          0.4980   41.8890  -36.2350 N.3   101  LEU101     -0.1245
      9  CA         0.3710   42.7070  -37.4270 C.3   101  LEU101      0.1561
     10  C          1.6410   42.8330  -38.2480 C.2   101  LEU101      0.2260
     11  O          1.5940   43.2060  -39.4180 O.2   101  LEU101     -0.2867
     12  CB        -0.1640   44.0860  -37.0400 C.3   101  LEU101      0.0270
     13  CG        -1.5680   44.0360  -36.4200 C.3   101  LEU101      0.0019
     14  CD1       -1.9850   45.4250  -36.0180 C.3   101  LEU101      0.0001
     15  CD2       -2.5640   43.4480  -37.4080 C.3   101  LEU101      0.0001
     16  N          2.0250   48.4670  -38.8310 N.3   131  PHE131     -0.1241
     17  CA         1.0910   47.9570  -39.8320 C.3   131  PHE131      0.1605
     18  C          0.3430   49.1280  -40.4800 C.2   131  PHE131      0.2264
     19  O         -0.4550   49.7980  -39.8240 O.2   131  PHE131     -0.2867
     20  CB         0.1380   47.0100  -39.0940 C.3   131  PHE131      0.0534
     21  CG        -0.8410   46.2970  -39.9600 C.ar  131  PHE131     -0.0203
     22  CD1       -2.1350   46.7770  -40.1000 C.ar  131  PHE131     -0.0042
     23  CD2       -0.5050   45.0880  -40.5560 C.ar  131  PHE131     -0.0042
     24  CE1       -3.0850   46.0580  -40.8140 C.ar  131  PHE131     -0.0003
     25  CE2       -1.4470   44.3600  -41.2740 C.ar  131  PHE131     -0.0003
     26  CZ        -2.7390   44.8440  -41.4000 C.ar  131  PHE131     -0.0000
     27  N         -2.4080   50.2160  -42.8550 N.3   133  LEU133     -0.1231
     28  CA        -3.5830   49.9090  -43.6560 C.3   133  LEU133      0.1693
     29  C         -4.5260   51.1060  -43.7730 C.2   133  LEU133      0.2593
     30  O         -4.8690   51.5320  -44.8700 O.2   133  LEU133     -0.2718
     31  CB        -4.3400   48.7240  -43.0530 C.3   133  LEU133      0.0284
     32  CG        -5.5460   48.2190  -43.8590 C.3   133  LEU133      0.0019
     33  CD1       -5.0790   47.8240  -45.2620 C.3   133  LEU133      0.0001
     34  CD2       -6.1990   47.0290  -43.1510 C.3   133  LEU133      0.0001
     35  N         -4.9410   51.6400  -42.6320 N.am  134  THR134     -0.1939
     36  CA        -5.8550   52.7720  -42.5990 C.3   134  THR134      0.2028
     37  C         -5.2820   53.9910  -43.3180 C.2   134  THR134      0.2642
     38  O         -4.0740   54.2210  -43.3130 O.2   134  THR134     -0.2714
     39  CB        -6.2070   53.1580  -41.1300 C.3   134  THR134      0.1808
     40  OG1       -6.8150   52.0370  -40.4770 O.3   134  THR134     -0.2208
     41  CG2       -7.1720   54.3320  -41.0880 C.3   134  THR134      0.0379
     42  N         -6.1670   54.7530  -43.9530 N.am  135  GLU135     -0.1963
     43  CA        -5.7980   55.9650  -44.6780 C.3   135  GLU135      0.1718
     44  C         -6.8080   57.0350  -44.2910 C.2   135  GLU135      0.2458
     45  O         -7.8850   56.7220  -43.7840 O.2   135  GLU135     -0.2730
     46  CB        -5.8580   55.7370  -46.1890 C.3   135  GLU135      0.0428
     47  CG        -4.8520   54.7490  -46.7150 C.3   135  GLU135      0.1163
     48  CD        -4.8770   54.6620  -48.2220 C.2   135  GLU135      0.3649
     49  OE1       -4.1250   53.8340  -48.7860 O.co2 135  GLU135     -0.2457
     50  OE2       -5.6490   55.4250  -48.8410 O.co2 135  GLU135     -0.2457
     51  N         -6.4810   58.3120  -44.5370 N.am  136  PRO136     -0.2727
     52  CA        -7.3960   59.4030  -44.1910 C.3   136  PRO136      0.1402
     53  C         -8.8310   59.2020  -44.6750 C.2   136  PRO136      0.2269
     54  O         -9.7780   59.5730  -43.9840 O.2   136  PRO136     -0.2865
     55  CB        -6.7250   60.6190  -44.8210 C.3   136  PRO136      0.0296
     56  CG        -5.2880   60.2970  -44.6740 C.3   136  PRO136      0.0237
     57  CD        -5.2380   58.8470  -45.1180 C.3   136  PRO136      0.0939
     58  N         -9.9910   56.0670  -45.7450 N.3   138  SER138     -0.1202
     59  CA       -10.2740   54.6460  -45.7840 C.3   138  SER138      0.2020
     60  C        -10.0420   54.0510  -44.4120 C.2   138  SER138      0.2619
     61  O         -8.9000   53.9240  -43.9680 O.2   138  SER138     -0.2717
     62  CB        -9.3740   53.9580  -46.8020 C.3   138  SER138      0.2103
     63  OG        -9.6010   52.5620  -46.7630 O.3   138  SER138     -0.2182
     64  N        -11.1310   53.6890  -43.7440 N.am  139  GLY139     -0.1942
     65  CA       -11.0190   53.1250  -42.4100 C.3   139  GLY139      0.2014
     66  C        -11.8410   51.8660  -42.2760 C.2   139  GLY139      0.2639
     67  O        -11.3040   50.7660  -42.3170 O.2   139  GLY139     -0.2714
     68  N        -13.1460   52.0270  -42.1120 N.am  140  SER140     -0.1949
     69  CA       -14.0300   50.8830  -41.9980 C.3   140  SER140      0.1924
     70  C        -14.1000   50.1790  -43.3500 C.2   140  SER140      0.2314
     71  O        -14.3980   48.9860  -43.4190 O.2   140  SER140     -0.2863
     72  CB       -15.4330   51.3340  -41.5790 C.3   140  SER140      0.2116
     73  OG       -15.4550   51.7720  -40.2340 O.3   140  SER140     -0.2180
     74  N         -3.0520   57.4040  -38.5410 N.3   166  TRP166     -0.1227
     75  CA        -3.4170   56.7280  -37.3080 C.3   166  TRP166      0.1737
     76  C         -2.6620   55.4220  -37.2140 C.2   166  TRP166      0.2595
     77  O         -3.2530   54.4110  -36.9240 O.2   166  TRP166     -0.2718
     78  CB        -4.9280   56.4550  -37.2560 C.3   166  TRP166      0.0564
     79  CG        -5.7060   57.6830  -36.9350 C.ar  166  TRP166      0.0003
     80  CD1       -6.5550   58.3650  -37.7640 C.ar  166  TRP166      0.0946
     81  CD2       -5.6150   58.4520  -35.7310 C.ar  166  TRP166      0.0152
     82  NE1       -6.9880   59.5140  -37.1500 N.ar  166  TRP166     -0.2442
     83  CE2       -6.4270   59.5920  -35.9020 C.ar  166  TRP166      0.0810
     84  CE3       -4.9210   58.2880  -34.5240 C.ar  166  TRP166      0.0012
     85  CZ2       -6.5640   60.5670  -34.9090 C.ar  166  TRP166      0.0191
     86  CZ3       -5.0570   59.2550  -33.5410 C.ar  166  TRP166      0.0001
     87  CH2       -5.8750   60.3810  -33.7420 C.ar  166  TRP166      0.0015
     88  N         -1.3540   55.4390  -37.4640 N.am  167  ILE167     -0.1966
     89  CA        -0.5810   54.2020  -37.3970 C.3   167  ILE167      0.1727
     90  C          0.2160   54.0690  -36.1070 C.2   167  ILE167      0.2616
     91  O          0.9920   54.9540  -35.7480 O.2   167  ILE167     -0.2715
     92  CB         0.3840   54.0800  -38.5710 C.3   167  ILE167      0.0290
     93  CG1       -0.3800   54.2200  -39.8880 C.3   167  ILE167      0.0022
     94  CG2        1.0760   52.7390  -38.5200 C.3   167  ILE167      0.0023
     95  CD1       -1.4410   53.1630  -40.1000 C.3   167  ILE167      0.0001
     96  N          0.0100   52.9560  -35.4120 N.am  168  THR168     -0.1951
     97  CA         0.6980   52.6910  -34.1610 C.3   168  THR168      0.1897
     98  C          2.1560   52.3550  -34.4320 C.2   168  THR168      0.2313
     99  O          2.4570   51.5230  -35.2900 O.2   168  THR168     -0.2863
    100  CB         0.0430   51.5070  -33.3970 C.3   168  THR168      0.1794
    101  OG1       -1.3080   51.8470  -33.0490 O.3   168  THR168     -0.2208
    102  CG2        0.8290   51.1790  -32.1250 C.3   168  THR168      0.0378
    103  N         -3.6790   63.5720  -28.8770 N.3   207  LYS207     -0.1245
    104  CA        -4.3640   62.3430  -28.5330 C.3   207  LYS207      0.1561
    105  C         -4.7310   62.3810  -27.0640 C.2   207  LYS207      0.2260
    106  O         -3.9630   62.8570  -26.2290 O.2   207  LYS207     -0.2867
    107  CB        -3.4610   61.1460  -28.7730 C.3   207  LYS207      0.0271
    108  CG        -3.5010   60.5690  -30.1750 C.3   207  LYS207      0.0035
    109  CD        -2.2930   59.6650  -30.3970 C.3   207  LYS207      0.0206
    110  CE        -2.0680   58.7180  -29.2210 C.3   207  LYS207      0.1093
    111  NZ        -0.7260   58.0750  -29.2950 N.3   207  LYS207     -0.1314
    112  N         -6.1510   59.4700  -25.6440 N.3   209  SER209     -0.1202
    113  CA        -6.4200   58.0430  -25.5330 C.3   209  SER209      0.2020
    114  C         -5.1490   57.3610  -26.0320 C.2   209  SER209      0.2618
    115  O         -4.5680   57.7920  -27.0240 O.2   209  SER209     -0.2717
    116  CB        -7.6060   57.6530  -26.4070 C.3   209  SER209      0.2103
    117  OG        -7.8970   56.2800  -26.2730 O.3   209  SER209     -0.2182
    118  N         -4.7150   56.3100  -25.3430 N.am  210  LEU210     -0.1979
    119  CA        -3.4900   55.5950  -25.7080 C.3   210  LEU210      0.1596
    120  C         -2.3070   56.5630  -25.8280 C.2   210  LEU210      0.2287
    121  O         -1.5120   56.4720  -26.7660 O.2   210  LEU210     -0.2864
    122  CB        -3.6710   54.8480  -27.0330 C.3   210  LEU210      0.0297
    123  CG        -4.7840   53.8070  -27.1230 C.3   210  LEU210      0.0022
    124  CD1       -4.6310   53.0260  -28.4090 C.3   210  LEU210      0.0001
    125  CD2       -4.7070   52.8620  -25.9450 C.3   210  LEU210      0.0001
    126  N          1.4120   55.5640  -26.0370 N.3   213  SER213     -0.1217
    127  CA         1.6550   54.8280  -27.2590 C.3   213  SER213      0.1889
    128  C          2.0420   55.8190  -28.3400 C.2   213  SER213      0.2288
    129  O          1.5330   56.9330  -28.3630 O.2   213  SER213     -0.2866
    130  CB         0.3820   54.0890  -27.6520 C.3   213  SER213      0.2089
    131  OG         0.4410   53.6530  -28.9890 O.3   213  SER213     -0.2183
    132  N          1.9180   57.1940  -32.0500 N.3   215  THR215     -0.1218
    133  CA         1.0350   57.0900  -33.2080 C.3   215  THR215      0.1862
    134  C          1.3840   58.1620  -34.2400 C.2   215  THR215      0.2287
    135  O          1.6000   59.3220  -33.8900 O.2   215  THR215     -0.2866
    136  CB        -0.4340   57.2790  -32.7870 C.3   215  THR215      0.1770
    137  OG1       -0.6220   56.7320  -31.4810 O.3   215  THR215     -0.2211
    138  CG2       -1.3710   56.5800  -33.7590 C.3   215  THR215      0.0375
    139  N        -10.4380   54.3200  -27.6290 N.3   363  ALA363     -0.1245
    140  CA        -9.7820   54.0500  -28.9080 C.3   363  ALA363      0.1562
    141  C         -9.8240   52.5580  -29.2480 C.2   363  ALA363      0.2260
    142  O         -9.9880   52.1710  -30.4050 O.2   363  ALA363     -0.2867
    143  CB        -8.3280   54.5390  -28.8690 C.3   363  ALA363      0.0290
    144  N        -12.7580   51.3440  -30.9390 N.3   366  THR366     -0.1203
    145  CA       -12.8510   51.9110  -32.2790 C.3   366  THR366      0.1994
    146  C        -11.9710   51.2160  -33.3160 C.2   366  THR366      0.2618
    147  O        -12.4470   50.8380  -34.3910 O.2   366  THR366     -0.2717
    148  CB       -12.4890   53.4180  -32.2620 C.3   366  THR366      0.1784
    149  OG1      -13.5000   54.1420  -31.5450 O.3   366  THR366     -0.2211
    150  CG2      -12.3750   53.9690  -33.6810 C.3   366  THR366      0.0376
    151  N        -10.6870   51.0460  -33.0070 N.am  367  TYR367     -0.1961
    152  CA        -9.8000   50.4130  -33.9760 C.3   367  TYR367      0.1771
    153  C         -9.9730   48.8970  -34.0700 C.2   367  TYR367      0.2619
    154  O        -10.5900   48.2730  -33.2050 O.2   367  TYR367     -0.2715
    155  CB        -8.3370   50.8180  -33.7130 C.3   367  TYR367      0.0574
    156  CG        -7.6360   50.2600  -32.4870 C.ar  367  TYR367     -0.0198
    157  CD1       -6.5120   50.9070  -31.9740 C.ar  367  TYR367     -0.0009
    158  CD2       -8.0220   49.0430  -31.9000 C.ar  367  TYR367     -0.0009
    159  CE1       -5.7770   50.3620  -30.9200 C.ar  367  TYR367      0.0417
    160  CE2       -7.2920   48.4830  -30.8410 C.ar  367  TYR367      0.0417
    161  CZ        -6.1660   49.1480  -30.3550 C.ar  367  TYR367      0.1957
    162  OH        -5.4060   48.6020  -29.3250 O.3   367  TYR367     -0.2866
    163  N         -9.4500   48.3160  -35.1430 N.am  368  GLU368     -0.1963
    164  CA        -9.5720   46.8840  -35.3820 C.3   368  GLU368      0.1733
    165  C        -11.0500   46.5670  -35.5290 C.2   368  GLU368      0.2617
    166  O        -11.5230   45.5260  -35.0670 O.2   368  GLU368     -0.2715
    167  CB        -8.9820   46.0860  -34.2240 C.3   368  GLU368      0.0429
    168  CG        -7.4760   46.1780  -34.1200 C.3   368  GLU368      0.1163
    169  CD        -6.7610   45.4800  -35.2670 C.2   368  GLU368      0.3649
    170  OE1       -5.5180   45.3980  -35.2240 O.co2 368  GLU368     -0.2457
    171  OE2       -7.4290   45.0070  -36.2120 O.co2 368  GLU368     -0.2457
    172  N        -11.7720   47.4850  -36.1750 N.am  369  GLY369     -0.1940
    173  CA       -13.1970   47.3130  -36.3870 C.3   369  GLY369      0.2014
    174  C        -14.0370   47.9590  -35.3000 C.2   369  GLY369      0.2639
    175  O        -13.9800   47.5510  -34.1440 O.2   369  GLY369     -0.2714
    176  N        -14.8140   48.9720  -35.6660 N.am  370  THR370     -0.1950
    177  CA       -15.6670   49.6700  -34.7110 C.3   370  THR370      0.1897
    178  C        -16.7070   48.7320  -34.1250 C.2   370  THR370      0.2313
    179  O        -17.0210   47.6990  -34.7100 O.2   370  THR370     -0.2863
    180  CB       -16.4310   50.8170  -35.3810 C.3   370  THR370      0.1794
    181  OG1      -17.2270   50.2880  -36.4510 O.3   370  THR370     -0.2208
    182  CG2      -15.4680   51.8650  -35.9210 C.3   370  THR370      0.0378
    183  N        -19.9270   48.8560  -34.0870 N.3   372  ASP372     -0.1225
    184  CA       -21.0220   48.5640  -35.0150 C.3   372  ASP372      0.1805
    185  C        -20.5990   47.7430  -36.2240 C.2   372  ASP372      0.2597
    186  O        -21.3440   46.8860  -36.6840 O.2   372  ASP372     -0.2718
    187  CB       -21.6880   49.8520  -35.5250 C.3   372  ASP372      0.1424
    188  CG       -22.5360   50.5420  -34.4700 C.2   372  ASP372      0.3668
    189  OD1      -23.3980   49.8750  -33.8480 O.co2 372  ASP372     -0.2456
    190  OD2      -22.3460   51.7620  -34.2770 O.co2 372  ASP372     -0.2456
    191  N        -19.4130   48.0110  -36.7580 N.am  373  ILE373     -0.1980
    192  CA       -18.9500   47.2650  -37.9250 C.3   373  ILE373      0.1595
    193  C        -18.9080   45.7790  -37.6020 C.2   373  ILE373      0.2287
    194  O        -19.2850   44.9440  -38.4330 O.2   373  ILE373     -0.2864
    195  CB       -17.5430   47.7510  -38.3980 C.3   373  ILE373      0.0276
    196  CG1      -17.6770   49.0660  -39.1840 C.3   373  ILE373      0.0022
    197  CG2      -16.8600   46.6820  -39.2310 C.3   373  ILE373      0.0022
    198  CD1      -18.6210   49.0100  -40.3570 C.3   373  ILE373      0.0001
    199  N        -22.3380   44.3690  -37.9830 N.3   376  LEU376     -0.1245
    200  CA       -22.7660   44.1010  -39.3570 C.3   376  LEU376      0.1561
    201  C        -22.1010   42.8140  -39.8310 C.2   376  LEU376      0.2260
    202  O        -22.6710   42.0630  -40.6260 O.2   376  LEU376     -0.2867
    203  CB       -22.3750   45.2390  -40.3070 C.3   376  LEU376      0.0270
    204  CG       -23.1660   46.5520  -40.3560 C.3   376  LEU376      0.0019
    205  CD1      -24.6570   46.2690  -40.3380 C.3   376  LEU376      0.0001
    206  CD2      -22.7950   47.4040  -39.1820 C.3   376  LEU376      0.0001
    207  N        -25.1890   44.1930  -45.1170 N.3   387  ALA387     -0.1231
    208  CA       -25.8500   45.4530  -44.8170 C.3   387  ALA387      0.1694
    209  C        -24.8720   46.5890  -44.6060 C.2   387  ALA387      0.2592
    210  O        -25.1890   47.5600  -43.9230 O.2   387  ALA387     -0.2718
    211  CB       -26.7370   45.3020  -43.5890 C.3   387  ALA387      0.0304
    212  N        -23.6870   46.4840  -45.1910 N.am  388  PHE388     -0.1976
    213  CA       -22.7180   47.5520  -45.0360 C.3   388  PHE388      0.1639
    214  C        -23.0540   48.7140  -45.9550 C.2   388  PHE388      0.2290
    215  O        -22.9710   49.8700  -45.5520 O.2   388  PHE388     -0.2864
    216  CB       -21.3070   47.0470  -45.3300 C.3   388  PHE388      0.0560
    217  CG       -20.8600   45.9430  -44.4170 C.ar  388  PHE388     -0.0200
    218  CD1      -21.1220   44.6160  -44.7290 C.ar  388  PHE388     -0.0042
    219  CD2      -20.1940   46.2330  -43.2320 C.ar  388  PHE388     -0.0042
    220  CE1      -20.7250   43.5940  -43.8740 C.ar  388  PHE388     -0.0003
    221  CE2      -19.7950   45.2140  -42.3690 C.ar  388  PHE388     -0.0003
    222  CZ       -20.0620   43.8910  -42.6940 C.ar  388  PHE388     -0.0000
@<TRIPOS>BOND
     1    50    48   ar
     2    49    48   ar
     3    48    47    1
     4    62    63    1
     5    62    59    1
     6    47    46    1
     7    46    43    1
     8   214   215    2
     9   214   213    1
    10    59    58    1
    11    59    60    1
    12   216   213    1
    13   216   217    1
    14    33    32    1
    15   212   213    1
    16   212   209   am
    17    57    56    1
    18    57    51    1
    19   207   208    1
    20    30    29    2
    21    55    56    1
    22    55    52    1
    23   208   209    1
    24   208   211    1
    25   218   217   ar
    26   218   220   ar
    27    43    44    1
    28    43    42    1
    29    53    52    1
    30    53    54    2
    31   209   210    2
    32    51    44   am
    33    51    52    1
    34   217   219   ar
    35    60    61    2
    36    60    64   am
    37    44    45    2
    38    42    37   am
    39   220   222   ar
    40    32    34    1
    41    32    31    1
    42    29    28    1
    43    29    35   am
    44    64    65    1
    45    28    31    1
    46    28    27    1
    47    71    70    2
    48    70    69    1
    49    37    38    2
    50    37    36    1
    51   219   221   ar
    52   222   221   ar
    53    35    36    1
    54    36    39    1
    55    65    66    1
    56    67    66    2
    57    66    68   am
    58    68    69    1
    59    69    72    1
    60    72    73    1
    61    26    25   ar
    62    26    24   ar
    63    25    23   ar
    64    39    41    1
    65    39    40    1
    66    24    22   ar
    67   202   201    2
    68    23    21   ar
    69    18    17    1
    70    18    19    2
    71   198   196    1
    72   204   205    1
    73   204   203    1
    74   204   206    1
    75   203   200    1
    76    22    21   ar
    77    95    93    1
    78    21    20    1
    79    93    92    1
    80    17    20    1
    81    17    16    1
    82   201   200    1
    83    11    10    2
    84   200   199    1
    85   197   195    1
    86   196   195    1
    87    92    94    1
    88    92    89    1
    89    74    75    1
    90   194   193    2
    91   195   192    1
    92    10     9    1
    93   192   193    1
    94   192   191    1
    95    80    82   ar
    96    80    79   ar
    97    88    89    1
    98    88    76   am
    99     9    12    1
   100     9     8    1
   101    15    13    1
   102    89    90    1
   103    75    78    1
   104    75    76    1
   105    78    79    1
   106    76    77    2
   107    82    83   ar
   108    12    13    1
   109    79    81   ar
   110   191   185   am
   111   186   185    2
   112   181   180    1
   113    13    14    1
   114   173   172    1
   115   173   174    1
   116   185   184    1
   117   171   169   ar
   118   172   165   am
   119    90    91    2
   120    90    96   am
   121   182   180    1
   122    83    81   ar
   123    83    85   ar
   124    81    84   ar
   125   176   174   am
   126   176   177    1
   127   165   164    1
   128   165   166    2
   129   187   184    1
   130   187   188    1
   131    96    97    1
   132   164   163    1
   133   164   167    1
   134   180   177    1
   135   174   175    2
   136    99    98    2
   137   169   170   ar
   138   169   168    1
   139     6     5    1
   140   163   153   am
   141   184   183    1
   142     4     3    2
   143    85    87   ar
   144   177   178    1
   145   179   178    2
   146    84    86   ar
   147   188   190   ar
   148   188   189   ar
   149    98    97    1
   150   147   146    2
   151   134   135    2
   152   134   133    1
   153   167   168    1
   154    97   100    1
   155   153   152    1
   156   153   154    2
   157     3     2    1
   158   152   155    1
   159   152   151    1
   160   138   136    1
   161     5     2    1
   162     5     7    1
   163    87    86   ar
   164   155   156    1
   165   150   148    1
   166     2     1    1
   167   100   101    1
   168   100   102    1
   169   146   151   am
   170   146   145    1
   171   133   136    1
   172   133   132    1
   173   136   137    1
   174   156   157   ar
   175   156   158   ar
   176   145   148    1
   177   145   144    1
   178   148   149    1
   179   157   159   ar
   180   158   160   ar
   181   159   161   ar
   182   160   161   ar
   183   142   141    2
   184   109   108    1
   185   109   110    1
   186   161   162    1
   187   108   107    1
   188   111   110    1
   189   141   140    1
   190   131   130    1
   191   140   143    1
   192   140   139    1
   193   103   104    1
   194   107   104    1
   195   104   105    1
   196   124   123    1
   197   129   128    2
   198   128   127    1
   199   130   127    1
   200   127   126    1
   201   123   122    1
   202   123   125    1
   203   105   106    2
   204   122   119    1
   205   115   114    2
   206   121   120    2
   207   116   117    1
   208   116   113    1
   209   114   113    1
   210   114   118   am
   211   120   119    1
   212   119   118    1
   213   112   113    1
