@<TRIPOS>MOLECULE
tmp/1sivB00.pdb
 106 99 0 0 0
SMALL
GASTEIGER

@<TRIPOS>ATOM
      1  N         -5.1800   15.5440   50.1480 N.3     8  ARG8       -0.1245
      2  CA        -4.8400   15.8810   48.7800 C.3     8  ARG8        0.1563
      3  C         -5.4430   17.2070   48.3210 C.2     8  ARG8        0.2260
      4  O         -6.6360   17.4340   48.5250 O.2     8  ARG8       -0.2867
      5  CB        -5.3340   14.8250   47.8610 C.3     8  ARG8        0.0307
      6  CG        -4.5370   13.5780   47.9890 C.3     8  ARG8        0.0489
      7  CD        -5.2760   12.6040   47.1410 C.3     8  ARG8        0.2205
      8  NE        -4.6090   11.3500   47.3690 N.pl3   8  ARG8       -0.0865
      9  CZ        -5.1330   10.1690   47.0510 C.cat   8  ARG8        0.5346
     10  NH1       -6.3330   10.0670   46.4850 N.pl3   8  ARG8        0.1354
     11  NH2       -4.4190    9.0880   47.3110 N.pl3   8  ARG8        0.1354
     12  N         -6.2710   17.5020   40.8750 N.3    23  LEU23      -0.1245
     13  CA        -5.2690   17.5790   41.8980 C.3    23  LEU23       0.1561
     14  C         -4.2850   18.6900   41.5620 C.2    23  LEU23       0.2260
     15  O         -3.7080   18.6530   40.4670 O.2    23  LEU23      -0.2867
     16  CB        -4.5470   16.2620   41.9380 C.3    23  LEU23       0.0270
     17  CG        -3.9480   15.5740   43.1370 C.3    23  LEU23       0.0019
     18  CD1       -2.8170   14.7420   42.6440 C.3    23  LEU23       0.0001
     19  CD2       -3.4010   16.5230   44.1370 C.3    23  LEU23       0.0001
     20  N         -1.0010   19.9560   41.3950 N.3    25  ASP25      -0.1239
     21  CA         0.2860   19.3250   41.4550 C.3    25  ASP25       0.1674
     22  C          1.6100   20.0230   41.1110 C.2    25  ASP25       0.2266
     23  O          2.0270   20.0810   39.9470 O.2    25  ASP25      -0.2867
     24  CB         0.0330   18.0510   40.6320 C.3    25  ASP25       0.1410
     25  CG         1.0120   16.9030   40.7580 C.2    25  ASP25       0.3668
     26  OD1        2.1270   17.0840   41.2130 O.co2  25  ASP25      -0.2456
     27  OD2        0.6520   15.7960   40.3860 O.co2  25  ASP25      -0.2456
     28  N          4.5390   18.7940   41.4430 N.3    27  GLY27      -0.1210
     29  CA         5.4650   17.8860   40.8100 C.3    27  GLY27       0.1956
     30  C          5.0890   17.5420   39.3560 C.2    27  GLY27       0.2612
     31  O          5.5740   16.5720   38.7590 O.2    27  GLY27      -0.2717
     32  N          4.1700   18.2870   38.7730 N.am   28  ALA28      -0.1965
     33  CA         3.7760   18.0410   37.4200 C.3    28  ALA28       0.1728
     34  C          4.0250   19.3080   36.6460 C.2    28  ALA28       0.2616
     35  O          3.6470   20.4060   37.0440 O.2    28  ALA28      -0.2715
     36  CB         2.3060   17.7040   37.3110 C.3    28  ALA28       0.0334
     37  N          4.7530   19.1350   35.5570 N.am   29  ASP29      -0.1957
     38  CA         5.0780   20.2190   34.6820 C.3    29  ASP29       0.1840
     39  C          3.9150   20.4370   33.7590 C.2    29  ASP29       0.2622
     40  O          3.7070   21.5670   33.3910 O.2    29  ASP29      -0.2715
     41  CB         6.2000   19.9590   33.7440 C.3    29  ASP29       0.1450
     42  CG         7.4260   19.3220   34.3340 C.2    29  ASP29       0.3671
     43  OD1        8.1720   19.9840   35.0380 O.co2  29  ASP29      -0.2456
     44  OD2        7.6430   18.1610   34.0470 O.co2  29  ASP29      -0.2456
     45  N          3.1440   19.4080   33.4310 N.am   30  ASP30      -0.1971
     46  CA         1.9940   19.3830   32.5280 C.3    30  ASP30       0.1709
     47  C          0.7010   19.0620   33.2440 C.2    30  ASP30       0.2293
     48  O          0.7550   18.5200   34.3520 O.2    30  ASP30      -0.2864
     49  CB         2.2280   18.2970   31.4560 C.3    30  ASP30       0.1436
     50  CG         3.6180   18.3430   30.8230 C.2    30  ASP30       0.3671
     51  OD1        4.0810   19.4360   30.5180 O.co2  30  ASP30      -0.2456
     52  OD2        4.2780   17.3200   30.6520 O.co2  30  ASP30      -0.2456
     53  N         -2.8340   16.8190   32.9720 N.3    32  ILE32      -0.1245
     54  CA        -3.3890   15.6940   32.2150 C.3    32  ILE32       0.1561
     55  C         -4.6630   15.3890   32.9090 C.2    32  ILE32       0.2260
     56  O         -4.7170   15.1570   34.1180 O.2    32  ILE32      -0.2867
     57  CB        -2.5470   14.3370   32.2310 C.3    32  ILE32       0.0252
     58  CG1       -1.1010   14.6430   32.1400 C.3    32  ILE32       0.0019
     59  CG2       -2.8280   13.4380   31.0320 C.3    32  ILE32       0.0019
     60  CD1       -0.6390   14.8950   33.5860 C.3    32  ILE32       0.0001
     61  N          3.6770   11.5960   27.7850 N.3    47  VAL47      -0.1231
     62  CA         3.9270   12.2060   29.0920 C.3    47  VAL47       0.1692
     63  C          4.4690   11.1510   30.0590 C.2    47  VAL47       0.2593
     64  O          3.8960   10.0790   30.2490 O.2    47  VAL47      -0.2718
     65  CB         2.6060   12.8610   29.6540 C.3    47  VAL47       0.0266
     66  CG1        2.8710   13.6500   30.9540 C.3    47  VAL47       0.0020
     67  CG2        2.0980   13.8940   28.6700 C.3    47  VAL47       0.0020
     68  N          5.6250   11.4540   30.6280 N.am   48  GLY48      -0.1942
     69  CA         6.2730   10.6200   31.6450 C.3    48  GLY48       0.2014
     70  C          5.7960   10.8940   33.0690 C.2    48  GLY48       0.2639
     71  O          5.5900   12.0630   33.4650 O.2    48  GLY48      -0.2714
     72  N          5.6570    9.8110   33.8320 N.am   49  GLY49      -0.1939
     73  CA         5.1930    9.8260   35.2130 C.3    49  GLY49       0.2014
     74  C          5.9750    8.8170   36.0610 C.2    49  GLY49       0.2638
     75  O          7.0630    8.3430   35.6890 O.2    49  GLY49      -0.2714
     76  N          5.4560    8.5280   37.2650 N.am   50  ILE50      -0.1977
     77  CA         6.0720    7.5520   38.1570 C.3    50  ILE50       0.1596
     78  C          5.8710    6.2010   37.4800 C.2    50  ILE50       0.2287
     79  O          4.7940    5.7230   37.0650 O.2    50  ILE50      -0.2864
     80  CB         5.4140    7.6020   39.6030 C.3    50  ILE50       0.0276
     81  CG1        6.5300    7.3390   40.5960 C.3    50  ILE50       0.0022
     82  CG2        4.3750    6.5450   39.8860 C.3    50  ILE50       0.0022
     83  CD1        7.4950    8.5220   40.7090 C.3    50  ILE50       0.0001
     84  N         -4.5760    7.8950   36.0000 N.3    81  PRO81      -0.2102
     85  CA        -5.3140    7.4910   37.1990 C.3    81  PRO81       0.1504
     86  C         -5.7520    8.6640   38.0420 C.2    81  PRO81       0.2575
     87  O         -6.6330    8.4640   38.8680 O.2    81  PRO81      -0.2718
     88  CB        -4.3960    6.5790   37.9670 C.3    81  PRO81       0.0282
     89  CG        -3.0260    7.1340   37.5920 C.3    81  PRO81       0.0208
     90  CD        -3.1880    7.4620   36.0890 C.3    81  PRO81       0.0893
     91  N         -5.1630    9.8580   37.9150 N.am   82  ILE82      -0.1980
     92  CA        -5.5270   11.0300   38.6960 C.3    82  ILE82       0.1595
     93  C         -5.5070   12.2080   37.7160 C.2    82  ILE82       0.2287
     94  O         -4.5800   12.3340   36.9150 O.2    82  ILE82      -0.2864
     95  CB        -4.5070   11.4220   39.8280 C.3    82  ILE82       0.0276
     96  CG1       -3.6830   10.2740   40.3940 C.3    82  ILE82       0.0022
     97  CG2       -5.3650   12.0440   40.9530 C.3    82  ILE82       0.0022
     98  CD1       -2.4220    9.8870   39.6290 C.3    82  ILE82       0.0001
     99  N         -4.6590   15.6630   36.8340 N.3    84  ILE84      -0.1245
    100  CA        -3.6390   16.5800   37.2710 C.3    84  ILE84       0.1561
    101  C         -3.5610   17.9600   36.6660 C.2    84  ILE84       0.2260
    102  O         -3.5790   18.0780   35.4450 O.2    84  ILE84      -0.2867
    103  CB        -2.2850   15.8480   37.0680 C.3    84  ILE84       0.0252
    104  CG1       -2.2550   14.6260   37.9740 C.3    84  ILE84       0.0019
    105  CG2       -1.1230   16.8210   37.2750 C.3    84  ILE84       0.0019
    106  CD1       -1.1180   13.6020   37.8090 C.3    84  ILE84       0.0001
@<TRIPOS>BOND
     1    61    62    1
     2    67    65    1
     3    62    65    1
     4    62    63    1
     5    65    66    1
     6    63    64    2
     7    63    68   am
     8    51    50   ar
     9    68    69    1
    10    52    50   ar
    11    50    49    1
    12    59    57    1
    13    49    46    1
    14    69    70    1
    15    58    57    1
    16    58    60    1
    17    54    57    1
    18    54    55    1
    19    54    53    1
    20    46    47    1
    21    46    45    1
    22    55    56    2
    23    70    71    2
    24    70    72   am
    25    47    48    2
    26    40    39    2
    27    45    39   am
    28    41    42    1
    29    41    38    1
    30    39    38    1
    31    72    73    1
    32    44    42   ar
    33    42    43   ar
    34    38    37    1
    35    73    74    1
    36   102   101    2
    37    37    34   am
    38    75    74    2
    39    84    90    1
    40    84    85    1
    41    74    76   am
    42    90    89    1
    43    34    35    2
    44    34    33    1
    45   101   100    1
    46    99   100    1
    47    94    93    2
    48    79    78    2
    49   103   100    1
    50   103   105    1
    51   103   104    1
    52    85    88    1
    53    85    86    1
    54    76    77    1
    55    36    33    1
    56    33    32    1
    57    78    77    1
    58    89    88    1
    59    93    92    1
    60   106   104    1
    61    91    86   am
    62    91    92    1
    63    86    87    2
    64    77    80    1
    65    92    95    1
    66    31    30    2
    67    32    30   am
    68    30    29    1
    69    80    82    1
    70    80    81    1
    71    98    96    1
    72    95    96    1
    73    95    97    1
    74    23    22    2
    75    27    25   ar
    76    15    14    2
    77    81    83    1
    78    24    25    1
    79    24    21    1
    80    25    26   ar
    81    29    28    1
    82    12    13    1
    83    22    21    1
    84    20    21    1
    85    14    13    1
    86    13    16    1
    87    16    17    1
    88    18    17    1
    89    17    19    1
    90    10     9    1
    91     9    11    1
    92     9     8    2
    93     7     8    1
    94     7     6    1
    95     5     6    1
    96     5     2    1
    97     3     4    2
    98     3     2    1
    99     2     1    1
