@<TRIPOS>MOLECULE
tmp/1sj0A00.pdb
 208 196 0 0 0
SMALL
GASTEIGER

@<TRIPOS>ATOM
      1  N         35.4380   -7.7290   31.2410 N.3    37  MET37      -0.1245
      2  CA        35.4890   -7.0430   29.9520 C.3    37  MET37       0.1570
      3  C         34.9220   -7.9310   28.8480 C.2    37  MET37       0.2261
      4  O         34.2390   -7.4260   27.9560 O.2    37  MET37      -0.2867
      5  CB        36.8960   -6.5930   29.5630 C.3    37  MET37       0.0387
      6  CG        36.9150   -5.5770   28.4220 C.3    37  MET37       0.0595
      7  SD        36.2610   -3.9620   28.9060 S.3    37  MET37      -0.1393
      8  CE        35.9030   -3.2520   27.3040 C.3    37  MET37       0.0692
      9  N         31.2010   -7.7060   29.3330 N.3    40  LEU40      -0.1231
     10  CA        30.7460   -6.4320   28.8010 C.3    40  LEU40       0.1693
     11  C         30.9180   -6.3610   27.2850 C.2    40  LEU40       0.2592
     12  O         30.0360   -5.8920   26.5590 O.2    40  LEU40      -0.2718
     13  CB        31.5000   -5.2600   29.4300 C.3    40  LEU40       0.0284
     14  CG        31.3720   -5.0590   30.9430 C.3    40  LEU40       0.0019
     15  CD1       32.2560   -3.9050   31.3930 C.3    40  LEU40       0.0001
     16  CD2       29.9220   -4.8550   31.3460 C.3    40  LEU40       0.0001
     17  N         32.0610   -6.8410   26.7910 N.am   41  THR41      -0.1953
     18  CA        32.2670   -6.7930   25.3440 C.3    41  THR41       0.1897
     19  C         31.2110   -7.6070   24.6150 C.2    41  THR41       0.2313
     20  O         30.6410   -7.1710   23.6210 O.2    41  THR41      -0.2863
     21  CB        33.6510   -7.3270   24.9410 C.3    41  THR41       0.1794
     22  OG1       34.6520   -6.4360   25.4440 O.3    41  THR41      -0.2208
     23  CG2       33.7960   -7.3490   23.4280 C.3    41  THR41       0.0378
     24  N         28.2590   -8.5240   25.6150 N.3    43  LEU43      -0.1231
     25  CA        26.9770   -7.8510   25.7470 C.3    43  LEU43       0.1693
     26  C         26.8660   -6.7410   24.7060 C.2    43  LEU43       0.2592
     27  O         25.8860   -6.6220   23.9800 O.2    43  LEU43      -0.2718
     28  CB        26.8420   -7.2710   27.1500 C.3    43  LEU43       0.0284
     29  CG        25.4730   -6.9050   27.7050 C.3    43  LEU43       0.0019
     30  CD1       24.3230   -7.1930   26.7520 C.3    43  LEU43       0.0001
     31  CD2       25.2460   -7.6680   29.0100 C.3    43  LEU43       0.0001
     32  N         27.8890   -5.9030   24.6180 N.am   44  ALA44      -0.1966
     33  CA        27.8620   -4.7820   23.6790 C.3    44  ALA44       0.1728
     34  C         27.7040   -5.2350   22.2350 C.2    44  ALA44       0.2616
     35  O         26.9280   -4.7000   21.4350 O.2    44  ALA44      -0.2715
     36  CB        29.1390   -3.9690   23.8890 C.3    44  ALA44       0.0334
     37  N         28.4590   -6.2530   21.8410 N.am   45  ASP45      -0.1971
     38  CA        28.3480   -6.8400   20.5070 C.3    45  ASP45       0.1709
     39  C         26.9340   -7.2810   20.1730 C.2    45  ASP45       0.2293
     40  O         26.4260   -7.0590   19.0770 O.2    45  ASP45      -0.2864
     41  CB        29.3200   -8.0250   20.4270 C.3    45  ASP45       0.1436
     42  CG        30.7390   -7.5150   20.2420 C.2    45  ASP45       0.3671
     43  OD1       30.8550   -6.3030   19.9550 O.co2  45  ASP45      -0.2456
     44  OD2       31.6940   -8.3000   20.3720 O.co2  45  ASP45      -0.2456
     45  N         24.1560   -6.1660   21.3550 N.3    47  GLU47      -0.1231
     46  CA        23.2370   -5.0270   21.3050 C.3    47  GLU47       0.1699
     47  C         23.3470   -4.3410   19.9500 C.2    47  GLU47       0.2592
     48  O         22.4270   -3.7250   19.4170 O.2    47  GLU47      -0.2718
     49  CB        23.5210   -4.0500   22.4400 C.3    47  GLU47       0.0402
     50  CG        22.9040   -4.4420   23.7760 C.3    47  GLU47       0.1161
     51  CD        23.1980   -3.4320   24.8670 C.2    47  GLU47       0.3649
     52  OE1       22.3830   -2.5100   25.0740 O.co2  47  GLU47      -0.2457
     53  OE2       24.2570   -3.5530   25.5100 O.co2  47  GLU47      -0.2457
     54  N         24.5410   -4.4740   19.3700 N.am   48  LEU48      -0.1980
     55  CA        24.7920   -3.7700   18.1140 C.3    48  LEU48       0.1596
     56  C         23.8130   -4.2040   17.0340 C.2    48  LEU48       0.2287
     57  O         23.2870   -3.3960   16.2750 O.2    48  LEU48      -0.2864
     58  CB        26.2390   -3.9910   17.6690 C.3    48  LEU48       0.0297
     59  CG        26.6740   -3.1410   16.4680 C.3    48  LEU48       0.0022
     60  CD1       26.6130   -1.6600   16.8190 C.3    48  LEU48       0.0001
     61  CD2       28.0510   -3.5730   15.9960 C.3    48  LEU48       0.0001
     62  N         27.5280    4.7260   17.5780 N.3    77  TRP77      -0.1227
     63  CA        27.1460    3.5010   18.2850 C.3    77  TRP77       0.1737
     64  C         27.5200    3.4940   19.7620 C.2    77  TRP77       0.2595
     65  O         26.7230    3.0520   20.5980 O.2    77  TRP77      -0.2718
     66  CB        27.7610    2.2770   17.5840 C.3    77  TRP77       0.0564
     67  CG        29.2430    2.1980   17.7820 C.ar   77  TRP77       0.0003
     68  CD1       30.2020    2.7850   17.0150 C.ar   77  TRP77       0.0946
     69  CD2       29.9490    1.4980   18.8150 C.ar   77  TRP77       0.0152
     70  NE1       31.4570    2.4890   17.5090 N.ar   77  TRP77      -0.2442
     71  CE2       31.3240    1.7000   18.6190 C.ar   77  TRP77       0.0810
     72  CE3       29.5090    0.7240   19.8920 C.ar   77  TRP77       0.0012
     73  CZ2       32.2910    1.1530   19.4530 C.ar   77  TRP77       0.0191
     74  CZ3       30.4720    0.1830   20.7140 C.ar   77  TRP77       0.0001
     75  CH2       31.8310    0.3950   20.4990 C.ar   77  TRP77       0.0015
     76  N         28.7130    3.9610   20.1460 N.am   78  LEU78      -0.1980
     77  CA        29.0680    3.9170   21.5670 C.3    78  LEU78       0.1596
     78  C         28.2150    4.8960   22.3650 C.2    78  LEU78       0.2287
     79  O         27.7180    4.5580   23.4420 O.2    78  LEU78      -0.2864
     80  CB        30.5660    4.1730   21.7940 C.3    78  LEU78       0.0297
     81  CG        31.0630    3.8100   23.2020 C.3    78  LEU78       0.0022
     82  CD1       30.3930    2.5220   23.6710 C.3    78  LEU78       0.0001
     83  CD2       32.5690    3.6640   23.2740 C.3    78  LEU78       0.0001
     84  N         24.8540    3.1700   22.8900 N.3    81  LEU81      -0.1231
     85  CA        24.9440    2.1560   23.9310 C.3    81  LEU81       0.1693
     86  C         24.9310    2.7930   25.3220 C.2    81  LEU81       0.2591
     87  O         24.2330    2.3150   26.2140 O.2    81  LEU81      -0.2718
     88  CB        26.2320    1.3460   23.8420 C.3    81  LEU81       0.0284
     89  CG        26.2870    0.2410   22.7850 C.3    81  LEU81       0.0019
     90  CD1       27.5290   -0.6230   22.9750 C.3    81  LEU81       0.0001
     91  CD2       25.0260   -0.5990   22.8150 C.3    81  LEU81       0.0001
     92  N         25.7340    3.8430   25.4520 N.am   82  MET82      -0.1979
     93  CA        25.9200    4.5220   26.7250 C.3    82  MET82       0.1605
     94  C         24.6740    5.2690   27.1610 C.2    82  MET82       0.2287
     95  O         24.3940    5.2850   28.3640 O.2    82  MET82      -0.2864
     96  CB        27.0910    5.5120   26.6830 C.3    82  MET82       0.0413
     97  CG        28.4360    4.8230   26.7630 C.3    82  MET82       0.0598
     98  SD        29.7930    6.0050   26.7360 S.3    82  MET82      -0.1393
     99  CE        31.1510    4.9710   27.3040 C.3    82  MET82       0.0692
    100  N         22.4400    2.5980   28.6100 N.3    85  LEU85      -0.1245
    101  CA        22.9040    2.0860   29.8970 C.3    85  LEU85       0.1561
    102  C         22.5490    3.0310   31.0450 C.2    85  LEU85       0.2260
    103  O         22.1130    2.6170   32.1140 O.2    85  LEU85      -0.2867
    104  CB        24.4140    1.8850   29.8690 C.3    85  LEU85       0.0270
    105  CG        25.0770    1.6300   31.2220 C.3    85  LEU85       0.0019
    106  CD1       24.5570    0.3290   31.8180 C.3    85  LEU85       0.0001
    107  CD2       26.5930    1.6220   31.0590 C.3    85  LEU85       0.0001
    108  N         18.7620    2.9060   31.8150 N.3    88  ARG88      -0.1245
    109  CA        18.2300    1.7530   32.5550 C.3    88  ARG88       0.1563
    110  C         18.8540    1.6840   33.9410 C.2    88  ARG88       0.2260
    111  O         18.3690    1.0060   34.8520 O.2    88  ARG88      -0.2867
    112  CB        18.3770    0.4760   31.7350 C.3    88  ARG88       0.0307
    113  CG        19.7370   -0.0420   31.3680 C.3    88  ARG88       0.0489
    114  CD        19.6690   -1.2620   30.4380 C.3    88  ARG88       0.2205
    115  NE        21.0490   -1.6740   30.1400 N.pl3  88  ARG88      -0.0865
    116  CZ        21.6590   -1.3200   29.0080 C.cat  88  ARG88       0.5346
    117  NH1       21.0170   -0.5890   28.1080 N.pl3  88  ARG88       0.1354
    118  NH2       22.9030   -1.6970   28.7620 N.pl3  88  ARG88       0.1354
    119  N         24.0730   -2.8800   33.3670 N.3    98  PHE98      -0.1241
    120  CA        24.5260   -3.3680   32.0670 C.3    98  PHE98       0.1605
    121  C         23.5030   -4.3310   31.4760 C.2    98  PHE98       0.2264
    122  O         23.1450   -4.2140   30.3050 O.2    98  PHE98      -0.2867
    123  CB        25.8970   -4.0130   32.2210 C.3    98  PHE98       0.0534
    124  CG        26.9890   -2.9980   32.5060 C.ar   98  PHE98      -0.0203
    125  CD1       27.5330   -2.2590   31.4680 C.ar   98  PHE98      -0.0042
    126  CD2       27.4740   -2.7860   33.7780 C.ar   98  PHE98      -0.0042
    127  CE1       28.5300   -1.3380   31.7080 C.ar   98  PHE98      -0.0003
    128  CE2       28.4660   -1.8610   34.0210 C.ar   98  PHE98      -0.0003
    129  CZ        29.0130   -1.1230   32.9810 C.ar   98  PHE98      -0.0000
    130  N         38.9680    1.7550   34.2060 N.3   115  MET115     -0.1245
    131  CA        37.5610    1.6350   33.8500 C.3   115  MET115      0.1570
    132  C         36.6550    2.4080   34.8030 C.2   115  MET115      0.2261
    133  O         35.6620    2.9750   34.3500 O.2   115  MET115     -0.2867
    134  CB        37.0940    0.1720   33.8030 C.3   115  MET115      0.0387
    135  CG        35.6450    0.0440   33.3280 C.3   115  MET115      0.0595
    136  SD        35.3160   -1.4810   32.4340 S.3   115  MET115     -0.1393
    137  CE        34.3710   -2.4150   33.6350 C.3   115  MET115      0.0692
    138  N         35.4460    5.7210   33.6380 N.3   118  ILE118     -0.1231
    139  CA        34.2880    5.6740   32.7600 C.3   118  ILE118      0.1692
    140  C         33.0120    5.4150   33.5580 C.2   118  ILE118      0.2592
    141  O         31.9840    6.0640   33.3670 O.2   118  ILE118     -0.2718
    142  CB        34.4360    4.5790   31.6860 C.3   118  ILE118      0.0266
    143  CG1       35.8240    4.4730   31.0620 C.3   118  ILE118      0.0019
    144  CG2       33.3760    4.7670   30.6150 C.3   118  ILE118      0.0020
    145  CD1       36.1030    5.4380   29.9380 C.3   118  ILE118      0.0001
    146  N         33.0790    4.4560   34.4770 N.am  119  PHE119     -0.1976
    147  CA        31.9670    4.1360   35.3630 C.3   119  PHE119      0.1639
    148  C         31.4580    5.4050   36.0480 C.2   119  PHE119      0.2290
    149  O         30.2640    5.7020   36.0640 O.2   119  PHE119     -0.2864
    150  CB        32.3810    3.1440   36.4480 C.3   119  PHE119      0.0560
    151  CG        32.1440    1.6710   36.1890 C.ar  119  PHE119     -0.0200
    152  CD1       31.7120    0.8340   37.2050 C.ar  119  PHE119     -0.0042
    153  CD2       32.3560    1.1150   34.9380 C.ar  119  PHE119     -0.0042
    154  CE1       31.4930   -0.5090   36.9750 C.ar  119  PHE119     -0.0003
    155  CE2       32.1430   -0.2290   34.6980 C.ar  119  PHE119     -0.0003
    156  CZ        31.7170   -1.0510   35.7280 C.ar  119  PHE119     -0.0000
    157  N         29.5380    7.6490   33.6790 N.3   122  LEU122     -0.1245
    158  CA        28.2380    7.0300   33.4390 C.3   122  LEU122      0.1561
    159  C         27.3150    7.1680   34.6430 C.2   122  LEU122      0.2260
    160  O         26.1790    7.6530   34.5620 O.2   122  LEU122     -0.2867
    161  CB        28.4520    5.5530   33.0610 C.3   122  LEU122      0.0270
    162  CG        29.1330    5.2980   31.7160 C.3   122  LEU122      0.0019
    163  CD1       29.6160    3.8670   31.5730 C.3   122  LEU122      0.0001
    164  CD2       28.1750    5.6370   30.5700 C.3   122  LEU122      0.0001
    165  N         35.6860    6.6320   26.1480 N.3   215  GLY215     -0.1225
    166  CA        35.4320    5.2040   26.0920 C.3   215  GLY215      0.1811
    167  C         36.1580    4.5500   24.9380 C.2   215  GLY215      0.2280
    168  O         36.6410    3.4310   25.0760 O.2   215  GLY215     -0.2866
    169  N         39.8220    4.2950   25.8490 N.3   218  HIS218     -0.1226
    170  CA        40.0500    3.1710   26.7630 C.3   218  HIS218      0.1752
    171  C         39.8980    1.8620   26.0010 C.2   218  HIS218      0.2595
    172  O         40.7360    0.9610   26.1420 O.2   218  HIS218     -0.2718
    173  CB        39.1280    3.3050   27.9700 C.3   218  HIS218      0.0759
    174  CG        39.1800    2.2760   29.0490 C.ar  218  HIS218      0.0818
    175  ND1       38.2370    1.2740   29.1600 N.ar  218  HIS218     -0.2268
    176  CD2       40.0300    2.0760   30.0840 C.ar  218  HIS218      0.1154
    177  CE1       38.5000    0.5020   30.1950 C.ar  218  HIS218      0.1986
    178  NE2       39.5900    0.9710   30.7720 N.ar  218  HIS218     -0.2212
    179  N         38.8650    1.7170   25.1730 N.am  219  LEU219     -0.1980
    180  CA        38.7770    0.4740   24.4050 C.3   219  LEU219      0.1596
    181  C         40.0090    0.2970   23.5280 C.2   219  LEU219      0.2287
    182  O         40.5720   -0.7990   23.4780 O.2   219  LEU219     -0.2864
    183  CB        37.5210    0.3930   23.5360 C.3   219  LEU219      0.0297
    184  CG        36.1950    0.4260   24.2950 C.3   219  LEU219      0.0022
    185  CD1       35.0280    0.1070   23.3810 C.3   219  LEU219      0.0001
    186  CD2       36.2490   -0.5510   25.4570 C.3   219  LEU219      0.0001
    187  N         38.8730   -6.4990   23.8620 N.3   224  CYS224     -0.1235
    188  CA        37.5360   -6.3020   23.3370 C.3   224  CYS224      0.1677
    189  C         37.5050   -6.1750   21.8190 C.2   224  CYS224      0.2270
    190  O         36.4280   -6.1600   21.2060 O.2   224  CYS224     -0.2867
    191  CB        36.9200   -5.0350   23.9610 C.3   224  CYS224      0.0956
    192  SG        38.0650   -3.6310   23.9030 S.3   224  CYS224     -0.0801
    193  N         35.0350   -1.7000   11.5760 N.3   228  LEU228     -0.1245
    194  CA        33.6630   -1.5870   12.0430 C.3   228  LEU228      0.1561
    195  C         32.7450   -1.1300   10.9130 C.2   228  LEU228      0.2260
    196  O         31.5520   -1.4410   10.8890 O.2   228  LEU228     -0.2867
    197  CB        33.5540   -0.5900   13.2080 C.3   228  LEU228      0.0270
    198  CG        32.1060   -0.4060   13.6940 C.3   228  LEU228      0.0019
    199  CD1       31.5250   -1.7550   14.0990 C.3   228  LEU228      0.0001
    200  CD2       32.0220    0.6010   14.8230 C.3   228  LEU228      0.0001
    201  N         31.6620   -4.1160    8.8400 N.3   231  LEU231     -0.1245
    202  CA        30.7260   -4.9710    9.5770 C.3   231  LEU231      0.1561
    203  C         29.3550   -4.3190    9.7010 C.2   231  LEU231      0.2260
    204  O         28.3270   -4.9990    9.6990 O.2   231  LEU231     -0.2867
    205  CB        31.3050   -5.3030   10.9520 C.3   231  LEU231      0.0270
    206  CG        30.3280   -5.9630   11.9240 C.3   231  LEU231      0.0019
    207  CD1       30.3330   -7.4740   11.7670 C.3   231  LEU231      0.0001
    208  CD2       30.6600   -5.5530   13.3540 C.3   231  LEU231      0.0001
@<TRIPOS>BOND
     1   201   202    1
     2   202   203    1
     3   202   205    1
     4   204   203    2
     5   196   195    2
     6   195   194    1
     7   205   206    1
     8   193   194    1
     9   207   206    1
    10   206   208    1
    11   194   197    1
    12   197   198    1
    13   198   199    1
    14   198   200    1
    15    61    59    1
    16    57    56    2
    17    59    60    1
    18    59    58    1
    19    68    70   ar
    20    68    67   ar
    21    56    55    1
    22    70    71   ar
    23    62    63    1
    24    66    67    1
    25    66    63    1
    26    58    55    1
    27    67    69   ar
    28    55    54    1
    29    63    64    1
    30    71    69   ar
    31    71    73   ar
    32    69    72   ar
    33    40    39    2
    34    54    47   am
    35    48    47    2
    36    73    75   ar
    37    64    76   am
    38    64    65    2
    39    72    74   ar
    40    47    46    1
    41    43    42   ar
    42    76    77    1
    43    39    38    1
    44    42    44   ar
    45    42    41    1
    46    41    38    1
    47    75    74   ar
    48    38    37    1
    49   190   189    2
    50    46    45    1
    51    46    49    1
    52    35    34    2
    53    77    80    1
    54    77    78    1
    55    80    81    1
    56   189   188    1
    57    37    34   am
    58    34    33    1
    59    78    79    2
    60    49    50    1
    61    89    91    1
    62    89    90    1
    63    89    88    1
    64    84    85    1
    65    81    83    1
    66    81    82    1
    67   188   187    1
    68   188   191    1
    69   185   184    1
    70    23    21    1
    71   182   181    2
    72   181   180    1
    73   183   184    1
    74   183   180    1
    75    20    19    2
    76    33    36    1
    77    33    32    1
    78    50    51    1
    79    88    85    1
    80   192   191    1
    81    85    86    1
    82    27    26    2
    83   184   186    1
    84   180   179    1
    85    19    18    1
    86    32    26   am
    87    26    25    1
    88    51    52   ar
    89    51    53   ar
    90   167   168    2
    91   167   166    1
    92    21    18    1
    93    21    22    1
    94   179   171   am
    95    86    92   am
    96    86    87    2
    97    18    17    1
    98    92    93    1
    99    24    25    1
   100    25    28    1
   101   169   170    1
   102   171   172    2
   103   171   170    1
   104   166   165    1
   105    12    11    2
   106    96    93    1
   107    96    97    1
   108    93    94    1
   109    98    97    1
   110    98    99    1
   111    30    29    1
   112   170   173    1
   113    17    11   am
   114    28    29    1
   115    94    95    2
   116    11    10    1
   117     8     7    1
   118    29    31    1
   119     4     3    2
   120   173   174    1
   121   117   116    1
   122     6     7    1
   123     6     5    1
   124   100   101    1
   125   118   116    1
   126    10     9    1
   127    10    13    1
   128     3     2    1
   129   116   115    2
   130   174   175   ar
   131   174   176   ar
   132   175   177   ar
   133    13    14    1
   134     5     2    1
   135   104   101    1
   136   104   105    1
   137   101   102    1
   138   145   143    1
   139     2     1    1
   140   176   178   ar
   141   115   114    1
   142   177   178   ar
   143   122   121    2
   144   114   113    1
   145   164   162    1
   146   144   142    1
   147    14    16    1
   148    14    15    1
   149   102   103    2
   150   107   105    1
   151   143   142    1
   152   105   106    1
   153   113   112    1
   154   125   127   ar
   155   125   124   ar
   156   121   120    1
   157   163   162    1
   158   142   139    1
   159   127   129   ar
   160   162   161    1
   161   112   109    1
   162   108   109    1
   163   120   123    1
   164   120   119    1
   165   123   124    1
   166   136   135    1
   167   136   137    1
   168   124   126   ar
   169   109   110    1
   170   139   140    1
   171   139   138    1
   172   129   128   ar
   173   161   158    1
   174   135   134    1
   175   141   140    2
   176   158   157    1
   177   158   159    1
   178   140   146   am
   179   126   128   ar
   180   134   131    1
   181   131   130    1
   182   131   132    1
   183   110   111    2
   184   133   132    2
   185   146   147    1
   186   160   159    2
   187   155   153   ar
   188   155   156   ar
   189   153   151   ar
   190   147   148    1
   191   147   150    1
   192   156   154   ar
   193   148   149    2
   194   151   150    1
   195   151   152   ar
   196   154   152   ar
