@<TRIPOS>MOLECULE
tmp/1sjaD00.pdb
 171 157 0 0 0
SMALL
GASTEIGER

@<TRIPOS>ATOM
      1  N        -17.8660   37.8100  116.9340 N.3    19  PHE19      -0.1241
      2  CA       -17.3600   38.8140  116.0270 C.3    19  PHE19       0.1605
      3  C        -16.7120   38.1930  114.7890 C.2    19  PHE19       0.2264
      4  O        -15.6670   37.5380  114.8540 O.2    19  PHE19      -0.2867
      5  CB       -16.3590   39.6820  116.8110 C.3    19  PHE19       0.0534
      6  CG       -15.9480   40.9270  116.0860 C.ar   19  PHE19      -0.0203
      7  CD1      -16.8940   41.8910  115.7270 C.ar   19  PHE19      -0.0042
      8  CD2      -14.6020   41.1400  115.7850 C.ar   19  PHE19      -0.0042
      9  CE1      -16.5110   43.0450  115.0420 C.ar   19  PHE19      -0.0003
     10  CE2      -14.2020   42.2890  115.1020 C.ar   19  PHE19      -0.0003
     11  CZ       -15.1600   43.2400  114.7480 C.ar   19  PHE19      -0.0000
     12  N        -15.0060   38.4580  111.1170 N.3    21  THR21      -0.1218
     13  CA       -14.1950   39.1760  110.1890 C.3    21  THR21       0.1862
     14  C        -14.0160   38.3990  108.9040 C.2    21  THR21       0.2287
     15  O        -14.4390   37.2540  108.8180 O.2    21  THR21      -0.2866
     16  CB       -12.8100   39.4480  110.7920 C.3    21  THR21       0.1770
     17  OG1      -12.9320   40.0970  112.0600 O.3    21  THR21      -0.2211
     18  CG2      -12.0270   40.2920  109.7840 C.3    21  THR21       0.0375
     19  N        -11.4870   37.1480  108.2400 N.3    23  PHE23      -0.1241
     20  CA       -10.4990   36.1250  108.6300 C.3    23  PHE23       0.1605
     21  C        -11.0230   34.9570  109.4910 C.2    23  PHE23       0.2264
     22  O        -10.3860   33.8940  109.5770 O.2    23  PHE23      -0.2867
     23  CB        -9.1240   36.6910  109.0550 C.3    23  PHE23       0.0534
     24  CG        -9.1310   37.5280  110.3400 C.ar   23  PHE23      -0.0203
     25  CD1       -9.2290   36.9410  111.6080 C.ar   23  PHE23      -0.0042
     26  CD2       -8.9950   38.9170  110.2540 C.ar   23  PHE23      -0.0042
     27  CE1       -9.2580   37.7230  112.7590 C.ar   23  PHE23      -0.0003
     28  CE2       -9.0030   39.7120  111.3990 C.ar   23  PHE23      -0.0003
     29  CZ        -9.1500   39.1080  112.6460 C.ar   23  PHE23      -0.0000
     30  N        -15.1990   34.8330  115.7780 N.3    26  GLN26      -0.1245
     31  CA       -14.5840   34.9650  117.0840 C.3    26  GLN26       0.1566
     32  C        -15.6380   34.8250  118.1880 C.2    26  GLN26       0.2260
     33  O        -16.6380   35.5420  118.1870 O.2    26  GLN26      -0.2867
     34  CB       -13.8470   36.2980  117.2160 C.3    26  GLN26       0.0367
     35  CG       -12.6520   36.1860  118.1630 C.3    26  GLN26       0.0905
     36  CD       -11.6970   37.3130  117.9280 C.2    26  GLN26       0.2608
     37  OE1      -11.8900   38.1070  116.9840 O.2    26  GLN26      -0.2717
     38  NE2      -10.6720   37.3850  118.7810 N.am   26  GLN26      -0.0878
     39  N         -3.5280   37.4580  118.6700 N.3    50  MET50      -0.1245
     40  CA        -4.6300   36.5580  118.8780 C.3    50  MET50       0.1570
     41  C         -4.1830   35.1280  118.9640 C.2    50  MET50       0.2261
     42  O         -2.9920   34.8030  118.9760 O.2    50  MET50      -0.2867
     43  CB        -5.7990   36.7930  117.9070 C.3    50  MET50       0.0387
     44  CG        -6.5630   37.9930  118.4270 C.3    50  MET50       0.0595
     45  SD        -8.2140   38.1540  117.7420 S.3    50  MET50      -0.1393
     46  CE        -7.8140   39.0580  116.2270 C.3    50  MET50       0.0692
     47  N         -4.5710   37.7960  111.4010 N.3    55  TYR55      -0.1241
     48  CA        -4.5700   39.1930  110.9880 C.3    55  TYR55       0.1605
     49  C         -3.1530   39.4690  110.5090 C.2    55  TYR55       0.2264
     50  O         -2.9060   40.0170  109.4200 O.2    55  TYR55      -0.2867
     51  CB        -5.0590   40.1600  112.1110 C.3    55  TYR55       0.0534
     52  CG        -4.6430   41.6490  112.1150 C.ar   55  TYR55      -0.0201
     53  CD1       -3.4800   42.0950  112.7500 C.ar   55  TYR55      -0.0009
     54  CD2       -5.4920   42.6330  111.5990 C.ar   55  TYR55      -0.0009
     55  CE1       -3.1150   43.4450  112.7930 C.ar   55  TYR55       0.0417
     56  CE2       -5.1520   43.9880  111.6270 C.ar   55  TYR55       0.0417
     57  CZ        -3.9430   44.3990  112.1980 C.ar   55  TYR55       0.1957
     58  OH        -3.5970   45.7380  112.2260 O.3    55  TYR55      -0.2866
     59  N        -17.1440   49.1150  115.5820 N.3   135  SER135     -0.1217
     60  CA       -16.8270   48.1050  114.5750 C.3   135  SER135      0.1889
     61  C        -17.9160   47.0260  114.4850 C.2   135  SER135      0.2288
     62  O        -18.0150   46.1880  115.3720 O.2   135  SER135     -0.2866
     63  CB       -15.4910   47.4240  114.8310 C.3   135  SER135      0.2089
     64  OG       -15.0670   46.7450  113.6440 O.3   135  SER135     -0.2183
     65  N        -18.5400   51.3760  111.4400 N.3   161  LYS161     -0.1245
     66  CA       -17.6280   50.6010  110.6520 C.3   161  LYS161      0.1561
     67  C        -18.2030   49.2210  110.3070 C.2   161  LYS161      0.2260
     68  O        -18.6430   48.4730  111.1600 O.2   161  LYS161     -0.2867
     69  CB       -16.3440   50.5590  111.4380 C.3   161  LYS161      0.0271
     70  CG       -15.2780   49.6660  110.8510 C.3   161  LYS161      0.0035
     71  CD       -14.0500   49.6600  111.7290 C.3   161  LYS161      0.0206
     72  CE       -13.1170   48.5160  111.4410 C.3   161  LYS161      0.1093
     73  NZ       -11.9050   48.6720  112.2300 N.3   161  LYS161     -0.1314
     74  N        -17.5630   45.5400  108.7350 N.3   163  LYS163     -0.1245
     75  CA       -16.7020   44.5010  108.1960 C.3   163  LYS163      0.1561
     76  C        -17.2630   43.9910  106.8760 C.2   163  LYS163      0.2260
     77  O        -18.4650   43.7800  106.7570 O.2   163  LYS163     -0.2867
     78  CB       -16.3910   43.3620  109.1400 C.3   163  LYS163      0.0271
     79  CG       -15.6190   43.8240  110.3870 C.3   163  LYS163      0.0035
     80  CD       -14.4180   44.7120  110.1050 C.3   163  LYS163      0.0206
     81  CE       -13.1220   44.1730  110.7020 C.3   163  LYS163      0.1093
     82  NZ       -12.7770   44.7740  112.0030 N.3   163  LYS163     -0.1314
     83  N        -14.3420   47.7730  106.1640 N.3   189  ASP189     -0.1239
     84  CA       -13.0910   47.1170  106.5740 C.3   189  ASP189      0.1674
     85  C        -12.9300   45.7120  106.0160 C.2   189  ASP189      0.2266
     86  O        -13.3800   44.7610  106.6250 O.2   189  ASP189     -0.2867
     87  CB       -12.8730   47.1090  108.0920 C.3   189  ASP189      0.1410
     88  CG       -11.5230   46.5140  108.4060 C.2   189  ASP189      0.3668
     89  OD1      -10.8440   45.9260  107.5910 O.co2 189  ASP189     -0.2456
     90  OD2      -11.1380   46.7330  109.6380 O.co2 189  ASP189     -0.2456
     91  N        -10.2570   43.8740  105.8410 N.3   191  ASN191     -0.1240
     92  CA        -9.1620   43.1270  106.4460 C.3   191  ASN191      0.1653
     93  C         -8.3160   42.3370  105.4520 C.2   191  ASN191      0.2266
     94  O         -7.9390   41.2280  105.7660 O.2   191  ASN191     -0.2867
     95  CB        -9.6190   42.2170  107.5850 C.3   191  ASN191      0.1155
     96  CG        -9.7140   42.9620  108.8870 C.2   191  ASN191      0.2627
     97  OD1      -10.8200   43.0990  109.4350 O.2   191  ASN191     -0.2716
     98  ND2       -8.5640   43.4330  109.3700 N.am  191  ASN191     -0.0877
     99  N        -10.8750   50.5410  104.5170 N.3   214  GLU214     -0.1245
    100  CA        -9.7320   50.1240  105.2790 C.3   214  GLU214      0.1567
    101  C         -9.1470   48.8260  104.7760 C.2   214  GLU214      0.2260
    102  O         -9.8500   47.8320  104.5960 O.2   214  GLU214     -0.2867
    103  CB       -10.1570   50.0400  106.7550 C.3   214  GLU214      0.0388
    104  CG        -9.0520   49.7720  107.7760 C.3   214  GLU214      0.1160
    105  CD        -9.6700   49.6560  109.1370 C.2   214  GLU214      0.3649
    106  OE1      -10.8370   49.9920  109.3150 O.co2 214  GLU214     -0.2457
    107  OE2       -8.8760   49.1670  110.0600 O.co2 214  GLU214     -0.2457
    108  N         -4.3150   49.8540  107.4780 N.3   239  ASP239     -0.1239
    109  CA        -4.1800   49.2980  108.7890 C.3   239  ASP239      0.1674
    110  C         -2.9530   48.4090  108.8190 C.2   239  ASP239      0.2266
    111  O         -1.8240   48.7780  109.1580 O.2   239  ASP239     -0.2867
    112  CB        -5.4530   48.5240  109.1810 C.3   239  ASP239      0.1410
    113  CG        -5.4330   47.8280  110.5160 C.2   239  ASP239      0.3668
    114  OD1       -4.4600   47.7350  111.2340 O.co2 239  ASP239     -0.2456
    115  OD2       -6.6190   47.3510  110.8440 O.co2 239  ASP239     -0.2456
    116  N         -5.0680   54.3600  109.9260 N.3   261  ASN261     -0.1240
    117  CA        -5.5850   53.7190  111.1160 C.3   261  ASN261      0.1653
    118  C         -4.4510   53.4270  112.0620 C.2   261  ASN261      0.2266
    119  O         -3.5760   52.6430  111.7090 O.2   261  ASN261     -0.2867
    120  CB        -6.1820   52.3380  110.8030 C.3   261  ASN261      0.1155
    121  CG        -6.7270   51.6920  112.0730 C.2   261  ASN261      0.2627
    122  OD1       -6.0250   51.4240  113.0600 O.2   261  ASN261     -0.2716
    123  ND2       -8.0250   51.4530  112.0410 N.am  261  ASN261     -0.0877
    124  N         -2.8780   51.4800  115.1390 N.3   263  LYS263     -0.1245
    125  CA        -2.9610   50.3410  116.0600 C.3   263  LYS263      0.1561
    126  C         -1.6530   50.2030  116.7890 C.2   263  LYS263      0.2260
    127  O         -0.6550   49.7960  116.2250 O.2   263  LYS263     -0.2867
    128  CB        -3.2100   49.0360  115.3670 C.3   263  LYS263      0.0271
    129  CG        -4.6750   48.6940  115.3950 C.3   263  LYS263      0.0035
    130  CD        -4.9810   47.4000  114.6890 C.3   263  LYS263      0.0206
    131  CE        -6.4890   47.2460  114.5380 C.3   263  LYS263      0.1093
    132  NZ        -6.9450   46.2420  113.5640 N.3   263  LYS263     -0.1314
    133  N         -8.6860   49.4290  117.1250 N.3   291  GLY291     -0.1210
    134  CA        -8.8230   48.5760  118.2880 C.3   291  GLY291      0.1956
    135  C         -8.7220   47.0940  117.9900 C.2   291  GLY291      0.2612
    136  O         -9.2120   46.6180  116.9760 O.2   291  GLY291     -0.2717
    137  N         -8.0940   46.4020  118.9250 N.am  292  MET292     -0.1965
    138  CA        -7.8860   44.9850  118.7890 C.3   292  MET292      0.1736
    139  C         -8.6160   44.1540  119.8420 C.2   292  MET292      0.2616
    140  O         -8.0440   43.2180  120.4060 O.2   292  MET292     -0.2715
    141  CB        -6.3780   44.6520  118.8160 C.3   292  MET292      0.0427
    142  CG        -5.6430   45.0200  117.5470 C.3   292  MET292      0.0599
    143  SD        -6.4370   44.3070  116.0700 S.3   292  MET292     -0.1393
    144  CE        -5.2250   43.0300  115.6940 C.3   292  MET292      0.0692
    145  N         -9.8890   44.5000  120.1030 N.am  293  ILE293     -0.1977
    146  CA       -10.7040   43.8000  121.0960 C.3   293  ILE293      0.1596
    147  C        -10.0020   43.6520  122.4440 C.2   293  ILE293      0.2287
    148  O         -9.7510   42.5490  122.9190 O.2   293  ILE293     -0.2864
    149  CB       -11.2300   42.4690  120.5620 C.3   293  ILE293      0.0276
    150  CG1      -11.3860   42.5050  119.0520 C.3   293  ILE293      0.0022
    151  CG2      -12.5890   42.1310  121.1720 C.3   293  ILE293      0.0022
    152  CD1      -12.0930   41.2720  118.5040 C.3   293  ILE293      0.0001
    153  N        -12.0140   53.2270  117.0820 N.3   316  ASP316     -0.1239
    154  CA       -12.6770   51.9950  117.3350 C.3   316  ASP316      0.1674
    155  C        -12.7470   51.7280  118.8100 C.2   316  ASP316      0.2266
    156  O        -12.9540   50.5960  119.2670 O.2   316  ASP316     -0.2867
    157  CB       -11.9530   50.8830  116.5920 C.3   316  ASP316      0.1410
    158  CG       -12.4900   50.9090  115.2200 C.2   316  ASP316      0.3668
    159  OD1      -13.3180   51.7360  114.8880 O.co2 316  ASP316     -0.2456
    160  OD2      -11.9650   49.9970  114.4260 O.co2 316  ASP316     -0.2456
    161  N        -17.9960   44.4590  123.9210 N.3   323  PHE323     -0.1241
    162  CA       -17.4190   43.1500  123.7540 C.3   323  PHE323      0.1605
    163  C        -17.4980   42.2880  124.9950 C.2   323  PHE323      0.2264
    164  O        -17.7610   41.0810  124.9470 O.2   323  PHE323     -0.2867
    165  CB       -15.9300   43.3730  123.4230 C.3   323  PHE323      0.0534
    166  CG       -15.7400   43.5280  121.9340 C.ar  323  PHE323     -0.0203
    167  CD1      -15.2490   44.7220  121.4070 C.ar  323  PHE323     -0.0042
    168  CD2      -16.1620   42.5330  121.0490 C.ar  323  PHE323     -0.0042
    169  CE1      -15.0850   44.8720  120.0270 C.ar  323  PHE323     -0.0003
    170  CE2      -15.9970   42.6660  119.6660 C.ar  323  PHE323     -0.0003
    171  CZ       -15.4480   43.8430  119.1550 C.ar  323  PHE323     -0.0000
@<TRIPOS>BOND
     1    99   100    1
     2   102   101    2
     3   101   100    1
     4   100   103    1
     5    93    94    2
     6    93    92    1
     7    91    92    1
     8    85    84    1
     9    85    86    2
    10    83    84    1
    11    92    95    1
    12    84    87    1
    13   103   104    1
    14    77    76    2
    15    76    75    1
    16   108   109    1
    17    95    96    1
    18    89    88   ar
    19   104   105    1
    20    87    88    1
    21    75    74    1
    22    75    78    1
    23    19    20    1
    24    88    90   ar
    25    20    23    1
    26    20    21    1
    27   109   110    1
    28   109   112    1
    29    15    14    2
    30   110   111    2
    31    96    98   am
    32    96    97    2
    33    14    13    1
    34    23    24    1
    35   105   106   ar
    36   105   107   ar
    37    78    79    1
    38   112   113    1
    39    50    49    2
    40    21    22    2
    41    18    16    1
    42   116   117    1
    43    80    79    1
    44    80    81    1
    45    13    16    1
    46    13    12    1
    47    26    24   ar
    48    26    28   ar
    49    67    66    1
    50    67    68    2
    51    24    25   ar
    52    49    48    1
    53   113   115   ar
    54   113   114   ar
    55    66    69    1
    56    66    65    1
    57    81    82    1
    58    16    17    1
    59   120   117    1
    60   120   121    1
    61    70    69    1
    62    70    71    1
    63    48    47    1
    64    48    51    1
    65   117   118    1
    66    28    29   ar
    67    72    71    1
    68    72    73    1
    69    54    56   ar
    70    54    52   ar
    71    25    27   ar
    72    56    57   ar
    73   119   118    2
    74   123   121   am
    75   121   122    2
    76    51    52    1
    77    52    53   ar
    78    57    58    1
    79    57    55   ar
    80    29    27   ar
    81    53    55   ar
    82   132   131    1
    83    64    63    1
    84   160   158   ar
    85    61    60    1
    86    61    62    2
    87   131   130    1
    88    60    63    1
    89    60    59    1
    90   130   129    1
    91    11     9   ar
    92    11    10   ar
    93     3     4    2
    94     3     2    1
    95   159   158   ar
    96     9     7   ar
    97    10     8   ar
    98   124   125    1
    99   158   157    1
   100   128   129    1
   101   128   125    1
   102   144   143    1
   103     7     6   ar
   104    30    31    1
   105     8     6   ar
   106     2     5    1
   107     2     1    1
   108   125   126    1
   109   143   142    1
   110     6     5    1
   111   127   126    2
   112    46    45    1
   113   157   154    1
   114   136   135    2
   115    37    36    2
   116   153   154    1
   117    31    34    1
   118    31    32    1
   119   133   134    1
   120    34    35    1
   121   154   155    1
   122   142   141    1
   123    45    44    1
   124    43    44    1
   125    43    40    1
   126    36    35    1
   127    36    38   am
   128   135   134    1
   129   135   137   am
   130    33    32    2
   131   152   150    1
   132    39    40    1
   133   138   141    1
   134   138   137    1
   135   138   139    1
   136   155   156    2
   137    40    41    1
   138    41    42    2
   139   150   149    1
   140   171   170   ar
   141   171   169   ar
   142   170   168   ar
   143   139   145   am
   144   139   140    2
   145   169   167   ar
   146   145   146    1
   147   149   146    1
   148   149   151    1
   149   168   166   ar
   150   146   147    1
   151   167   166   ar
   152   166   165    1
   153   147   148    2
   154   165   162    1
   155   162   161    1
   156   162   163    1
   157   164   163    2
