@<TRIPOS>MOLECULE
tmp/1sjbD00.pdb
 184 171 0 0 0
SMALL
GASTEIGER

@<TRIPOS>ATOM
      1  N        -17.9510   38.1190  117.8280 N.3    19  PHE19      -0.1241
      2  CA       -17.5930   39.1090  116.8510 C.3    19  PHE19       0.1605
      3  C        -16.9190   38.4810  115.6090 C.2    19  PHE19       0.2264
      4  O        -15.8740   37.8190  115.6510 O.2    19  PHE19      -0.2867
      5  CB       -16.8190   40.2160  117.5850 C.3    19  PHE19       0.0534
      6  CG       -15.9800   41.1430  116.7570 C.ar   19  PHE19      -0.0203
      7  CD1      -16.5000   42.3310  116.2410 C.ar   19  PHE19      -0.0042
      8  CD2      -14.6350   40.8410  116.5450 C.ar   19  PHE19      -0.0042
      9  CE1      -15.6980   43.1970  115.4980 C.ar   19  PHE19      -0.0003
     10  CE2      -13.8150   41.6920  115.8100 C.ar   19  PHE19      -0.0003
     11  CZ       -14.3600   42.8620  115.2810 C.ar   19  PHE19      -0.0000
     12  N        -11.3880   37.3740  109.0600 N.3    23  PHE23      -0.1241
     13  CA       -10.4720   36.3100  109.4720 C.3    23  PHE23       0.1605
     14  C        -11.0800   35.1790  110.3120 C.2    23  PHE23       0.2264
     15  O        -10.4690   34.1050  110.4350 O.2    23  PHE23      -0.2867
     16  CB        -9.1540   36.8000  110.0820 C.3    23  PHE23       0.0534
     17  CG        -9.2560   37.7480  111.2540 C.ar   23  PHE23      -0.0203
     18  CD1       -8.9070   39.0840  111.0710 C.ar   23  PHE23      -0.0042
     19  CD2       -9.5780   37.3090  112.5410 C.ar   23  PHE23      -0.0042
     20  CE1       -8.9350   39.9820  112.1340 C.ar   23  PHE23      -0.0003
     21  CE2       -9.6170   38.1970  113.6160 C.ar   23  PHE23      -0.0003
     22  CZ        -9.2930   39.5360  113.4050 C.ar   23  PHE23      -0.0000
     23  N        -15.1930   35.2750  116.6510 N.3    26  GLN26      -0.1245
     24  CA       -14.6770   35.2170  118.0030 C.3    26  GLN26       0.1566
     25  C        -15.7970   35.2020  118.9850 C.2    26  GLN26       0.2260
     26  O        -16.7530   35.9650  118.8370 O.2    26  GLN26      -0.2867
     27  CB       -13.7930   36.4130  118.3430 C.3    26  GLN26       0.0367
     28  CG       -12.8070   36.1220  119.4860 C.3    26  GLN26       0.0905
     29  CD       -11.5750   37.0170  119.4110 C.2    26  GLN26       0.2608
     30  OE1      -11.6070   38.0630  118.7470 O.2    26  GLN26      -0.2717
     31  NE2      -10.4760   36.6110  120.0670 N.am   26  GLN26      -0.0878
     32  N         -3.6130   37.5760  119.4600 N.3    50  MET50      -0.1245
     33  CA        -4.7510   36.7960  119.7460 C.3    50  MET50       0.1570
     34  C         -4.3290   35.3530  119.8190 C.2    50  MET50       0.2261
     35  O         -3.1070   35.0180  119.8280 O.2    50  MET50      -0.2867
     36  CB        -5.9410   37.1150  118.8360 C.3    50  MET50       0.0387
     37  CG        -6.3440   38.5800  118.9600 C.3    50  MET50       0.0595
     38  SD        -8.0950   38.8880  118.5790 S.3    50  MET50      -0.1393
     39  CE        -8.3700   40.5160  119.3320 C.3    50  MET50       0.0692
     40  N         -4.7550   38.1610  112.1170 N.3    55  TYR55      -0.1241
     41  CA        -4.7180   39.5770  111.7800 C.3    55  TYR55       0.1605
     42  C         -3.2850   39.8040  111.2590 C.2    55  TYR55       0.2264
     43  O         -3.0720   40.3530  110.1760 O.2    55  TYR55      -0.2867
     44  CB        -5.0680   40.4470  112.9990 C.3    55  TYR55       0.0534
     45  CG        -4.6670   41.9150  112.9160 C.ar   55  TYR55      -0.0201
     46  CD1       -3.4050   42.3760  113.3030 C.ar   55  TYR55      -0.0009
     47  CD2       -5.6050   42.8640  112.5150 C.ar   55  TYR55      -0.0009
     48  CE1       -3.0740   43.7320  113.2480 C.ar   55  TYR55       0.0417
     49  CE2       -5.2990   44.2240  112.4660 C.ar   55  TYR55       0.0417
     50  CZ        -4.0220   44.6570  112.8270 C.ar   55  TYR55       0.1957
     51  OH        -3.6770   45.9850  112.7750 O.3    55  TYR55      -0.2866
     52  N        -17.0790   49.3290  116.3060 N.3   135  SER135     -0.1217
     53  CA       -16.7430   48.3690  115.2740 C.3   135  SER135      0.1889
     54  C        -17.7620   47.2040  115.1970 C.2   135  SER135      0.2288
     55  O        -17.7460   46.3350  116.0540 O.2   135  SER135     -0.2866
     56  CB       -15.3540   47.8440  115.6000 C.3   135  SER135      0.2089
     57  OG       -15.0400   46.8000  114.7170 O.3   135  SER135     -0.2183
     58  N        -18.3850   51.5700  112.2130 N.3   161  LYS161     -0.1245
     59  CA       -17.4470   50.8420  111.4170 C.3   161  LYS161      0.1561
     60  C        -18.0340   49.4290  111.1310 C.2   161  LYS161      0.2260
     61  O        -18.3320   48.6740  112.0580 O.2   161  LYS161     -0.2867
     62  CB       -16.1070   50.8440  112.1430 C.3   161  LYS161      0.0271
     63  CG       -15.1450   49.7250  111.7320 C.3   161  LYS161      0.0035
     64  CD       -13.8870   49.7160  112.6140 C.3   161  LYS161      0.0206
     65  CE       -12.9820   48.5220  112.3500 C.3   161  LYS161      0.1093
     66  NZ       -11.6250   48.6780  112.9090 N.3   161  LYS161     -0.1314
     67  N        -17.8300   45.5410  109.4810 N.3   163  LYS163     -0.1245
     68  CA       -16.8500   44.5710  109.0410 C.3   163  LYS163      0.1561
     69  C        -17.2750   43.9930  107.7050 C.2   163  LYS163      0.2260
     70  O        -18.4040   43.5040  107.5790 O.2   163  LYS163     -0.2867
     71  CB       -16.5910   43.5030  110.0840 C.3   163  LYS163      0.0271
     72  CG       -15.1230   43.4050  110.4850 C.3   163  LYS163      0.0035
     73  CD       -14.6600   44.4090  111.5320 C.3   163  LYS163      0.0206
     74  CE       -13.1330   44.4850  111.5720 C.3   163  LYS163      0.1093
     75  NZ       -12.5760   45.3880  112.5920 N.3   163  LYS163     -0.1314
     76  N        -14.2490   47.9810  107.1520 N.3   189  ASP189     -0.1239
     77  CA       -12.9660   47.4050  107.4380 C.3   189  ASP189      0.1674
     78  C        -12.9240   46.0130  106.8580 C.2   189  ASP189      0.2266
     79  O        -13.7620   45.1860  107.2180 O.2   189  ASP189     -0.2867
     80  CB       -12.7090   47.3760  108.9530 C.3   189  ASP189      0.1410
     81  CG       -11.3520   46.7750  109.1930 C.2   189  ASP189      0.3668
     82  OD1      -10.6560   46.3050  108.2890 O.co2 189  ASP189     -0.2456
     83  OD2      -10.9850   46.8450  110.4370 O.co2 189  ASP189     -0.2456
     84  N        -10.0170   44.0150  106.7630 N.3   191  ASN191     -0.1240
     85  CA        -8.9540   43.2290  107.3430 C.3   191  ASN191      0.1653
     86  C         -8.2200   42.3700  106.3530 C.2   191  ASN191      0.2266
     87  O         -8.0120   41.1970  106.6250 O.2   191  ASN191     -0.2867
     88  CB        -9.4700   42.3970  108.5080 C.3   191  ASN191      0.1155
     89  CG        -9.6950   43.2810  109.7220 C.2   191  ASN191      0.2627
     90  OD1      -10.8060   43.3770  110.2680 O.2   191  ASN191     -0.2716
     91  ND2       -8.6390   43.9830  110.1220 N.am  191  ASN191     -0.0877
     92  N         -4.2250   50.1560  108.3300 N.3   239  ASP239     -0.1239
     93  CA        -4.0830   49.6470  109.6660 C.3   239  ASP239      0.1674
     94  C         -2.9260   48.6490  109.6600 C.2   239  ASP239      0.2266
     95  O         -1.7560   48.9720  109.9910 O.2   239  ASP239     -0.2867
     96  CB        -5.4320   48.9800  110.0890 C.3   239  ASP239      0.1410
     97  CG        -5.4380   48.1420  111.3620 C.2   239  ASP239      0.3668
     98  OD1       -4.4510   47.8870  112.0120 O.co2 239  ASP239     -0.2456
     99  OD2       -6.6370   47.7240  111.7000 O.co2 239  ASP239     -0.2456
    100  N         -2.8410   51.7850  115.9260 N.3   263  LYS263     -0.1245
    101  CA        -2.9190   50.6560  116.8450 C.3   263  LYS263      0.1561
    102  C         -1.5940   50.5830  117.5860 C.2   263  LYS263      0.2260
    103  O         -0.5850   50.0720  117.0680 O.2   263  LYS263     -0.2867
    104  CB        -3.1950   49.3320  116.1400 C.3   263  LYS263      0.0271
    105  CG        -4.6650   49.0300  116.1460 C.3   263  LYS263      0.0035
    106  CD        -5.0780   47.7530  115.4200 C.3   263  LYS263      0.0206
    107  CE        -6.5860   47.8070  115.0910 C.3   263  LYS263      0.1093
    108  NZ        -7.1150   46.6410  114.3770 N.3   263  LYS263     -0.1314
    109  N         -8.8460   49.6370  117.6620 N.3   291  GLY291     -0.1210
    110  CA        -8.9890   48.8080  118.8330 C.3   291  GLY291      0.1956
    111  C         -8.7460   47.3500  118.5630 C.2   291  GLY291      0.2612
    112  O         -9.0680   46.8590  117.4830 O.2   291  GLY291     -0.2717
    113  N         -8.1830   46.6700  119.5710 N.am  292  MET292     -0.1965
    114  CA        -7.9030   45.2470  119.4960 C.3   292  MET292      0.1736
    115  C         -8.6670   44.4590  120.5710 C.2   292  MET292      0.2616
    116  O         -8.1420   43.5060  121.1500 O.2   292  MET292     -0.2715
    117  CB        -6.3890   44.9650  119.5140 C.3   292  MET292      0.0427
    118  CG        -5.7150   45.2960  118.1840 C.3   292  MET292      0.0599
    119  SD        -6.1600   44.1840  116.8040 S.3   292  MET292     -0.1393
    120  CE        -4.5600   43.4120  116.4450 C.3   292  MET292      0.0692
    121  N         -9.9360   44.8760  120.8170 N.am  293  ILE293     -0.1963
    122  CA       -10.8000   44.2700  121.8420 C.3   293  ILE293      0.1727
    123  C         -9.9770   44.1030  123.1180 C.2   293  ILE293      0.2616
    124  O         -9.5490   43.0060  123.4670 O.2   293  ILE293     -0.2715
    125  CB       -11.4170   42.9400  121.4010 C.3   293  ILE293      0.0290
    126  CG1      -11.9220   43.0180  119.9640 C.3   293  ILE293      0.0022
    127  CG2      -12.5900   42.6150  122.2990 C.3   293  ILE293      0.0023
    128  CD1      -12.1120   41.6300  119.3520 C.3   293  ILE293      0.0001
    129  N         -9.7400   45.2320  123.7770 N.am  294  GLU294     -0.1977
    130  CA        -8.9220   45.3040  124.9520 C.3   294  GLU294      0.1602
    131  C         -9.6870   45.4830  126.2750 C.2   294  GLU294      0.2287
    132  O        -10.8630   45.8880  126.3340 O.2   294  GLU294     -0.2864
    133  CB        -7.8470   46.3910  124.7430 C.3   294  GLU294      0.0415
    134  CG        -6.9140   46.1160  123.5450 C.3   294  GLU294      0.1163
    135  CD        -6.7880   47.2940  122.6330 C.2   294  GLU294      0.3649
    136  OE1       -7.7400   47.7310  122.0250 O.co2 294  GLU294     -0.2457
    137  OE2       -5.5660   47.8060  122.6090 O.co2 294  GLU294     -0.2457
    138  N         -7.6060   49.7800  126.9360 N.3   299  ARG299     -0.1245
    139  CA        -8.6850   50.7480  126.7330 C.3   299  ARG299      0.1563
    140  C         -8.3550   52.1350  127.3290 C.2   299  ARG299      0.2260
    141  O         -8.6470   53.1570  126.7240 O.2   299  ARG299     -0.2867
    142  CB        -9.9980   50.1910  127.2710 C.3   299  ARG299      0.0307
    143  CG       -11.1950   51.1120  127.0500 C.3   299  ARG299      0.0489
    144  CD       -12.4950   50.3320  126.8540 C.3   299  ARG299      0.2205
    145  NE       -12.2810   49.0000  126.3050 N.pl3 299  ARG299     -0.0865
    146  CZ       -12.4330   48.7360  125.0080 C.cat 299  ARG299      0.5346
    147  NH1      -12.8170   49.6690  124.1310 N.pl3 299  ARG299      0.1354
    148  NH2      -12.2160   47.4970  124.5880 N.pl3 299  ARG299      0.1354
    149  N        -12.1310   53.4200  117.5450 N.3   316  ASP316     -0.1239
    150  CA       -12.6880   52.1870  117.9870 C.3   316  ASP316      0.1674
    151  C        -12.3190   52.1910  119.4430 C.2   316  ASP316      0.2266
    152  O        -11.3950   51.4970  119.8790 O.2   316  ASP316     -0.2867
    153  CB       -11.9840   51.0050  117.3330 C.3   316  ASP316      0.1410
    154  CG       -12.4520   50.8330  115.9480 C.2   316  ASP316      0.3668
    155  OD1      -13.4700   51.3790  115.6000 O.co2 316  ASP316     -0.2456
    156  OD2      -11.6110   50.0960  115.1950 O.co2 316  ASP316     -0.2456
    157  N        -14.7130   52.1100  122.0560 N.3   318  SER318     -0.1217
    158  CA       -16.0310   51.8520  122.5700 C.3   318  SER318      0.1889
    159  C        -16.0020   51.5530  124.0970 C.2   318  SER318      0.2288
    160  O        -14.9540   51.2530  124.6840 O.2   318  SER318     -0.2866
    161  CB       -16.7390   50.7640  121.7500 C.3   318  SER318      0.2089
    162  OG       -16.7540   51.0300  120.3470 O.3   318  SER318     -0.2183
    163  N        -18.9930   46.9070  125.5770 N.3   322  ARG322     -0.1231
    164  CA       -19.3220   46.6460  124.1880 C.3   322  ARG322      0.1694
    165  C        -19.0140   45.1890  123.9290 C.2   322  ARG322      0.2592
    166  O        -19.7610   44.4890  123.2060 O.2   322  ARG322     -0.2718
    167  CB       -18.6040   47.5790  123.1950 C.3   322  ARG322      0.0321
    168  CG       -18.9990   47.3490  121.7240 C.3   322  ARG322      0.0489
    169  CD       -17.9030   46.6940  120.8810 C.3   322  ARG322      0.2205
    170  NE       -18.3890   46.1800  119.6010 N.pl3 322  ARG322     -0.0865
    171  CZ       -19.0710   45.0290  119.4430 C.cat 322  ARG322      0.5346
    172  NH1      -19.3720   44.2180  120.4520 N.pl3 322  ARG322      0.1354
    173  NH2      -19.4770   44.6730  118.2320 N.pl3 322  ARG322      0.1354
    174  N        -17.9150   44.7700  124.5960 N.am  323  PHE323     -0.1976
    175  CA       -17.3740   43.4220  124.5320 C.3   323  PHE323      0.1639
    176  C        -17.4870   42.6440  125.8440 C.2   323  PHE323      0.2290
    177  O        -17.8570   41.4480  125.8780 O.2   323  PHE323     -0.2864
    178  CB       -15.8790   43.5330  124.2060 C.3   323  PHE323      0.0560
    179  CG       -15.6040   43.9970  122.8050 C.ar  323  PHE323     -0.0200
    180  CD1      -14.6680   44.9970  122.5460 C.ar  323  PHE323     -0.0042
    181  CD2      -16.2760   43.4040  121.7360 C.ar  323  PHE323     -0.0042
    182  CE1      -14.4090   45.3950  121.2360 C.ar  323  PHE323     -0.0003
    183  CE2      -16.0380   43.8020  120.4200 C.ar  323  PHE323     -0.0003
    184  CZ       -15.0900   44.7940  120.1760 C.ar  323  PHE323     -0.0000
@<TRIPOS>BOND
     1    86    87    2
     2    86    85    1
     3    84    85    1
     4    78    79    2
     5    78    77    1
     6    76    77    1
     7    85    88    1
     8    77    80    1
     9    70    69    2
    10    69    68    1
    11    82    81   ar
    12    92    93    1
    13    88    89    1
    14    80    81    1
    15    68    67    1
    16    68    71    1
    17    12    13    1
    18    81    83   ar
    19    13    16    1
    20    13    14    1
    21    94    93    1
    22    94    95    2
    23    93    96    1
    24    89    91   am
    25    89    90    2
    26    16    17    1
    27    71    72    1
    28    96    97    1
    29    43    42    2
    30    14    15    2
    31    72    73    1
    32    18    17   ar
    33    18    20   ar
    34    60    59    1
    35    60    61    2
    36    17    19   ar
    37    42    41    1
    38    97    99   ar
    39    97    98   ar
    40    59    62    1
    41    59    58    1
    42    73    74    1
    43    74    75    1
    44    63    62    1
    45    63    64    1
    46    41    40    1
    47    41    44    1
    48    20    22   ar
    49    65    64    1
    50    65    66    1
    51    49    47   ar
    52    49    50   ar
    53    47    45   ar
    54    19    21   ar
    55    51    50    1
    56    50    48   ar
    57    45    44    1
    58    45    46   ar
    59    48    46   ar
    60    22    21   ar
    61   108   107    1
    62    57    56    1
    63   107   106    1
    64   156   154   ar
    65    54    53    1
    66    54    55    2
    67    53    56    1
    68    53    52    1
    69    11     9   ar
    70    11    10   ar
    71   106   105    1
    72     9     7   ar
    73   155   154   ar
    74     3     4    2
    75     3     2    1
    76    10     8   ar
    77   100   101    1
    78   154   153    1
    79   104   105    1
    80   104   101    1
    81     7     6   ar
    82   120   119    1
    83     8     6   ar
    84    23    24    1
    85     6     5    1
    86   119   118    1
    87   101   102    1
    88     2     5    1
    89     2     1    1
    90   103   102    2
    91   153   150    1
    92   112   111    2
    93   149   150    1
    94   109   110    1
    95   150   151    1
    96    24    27    1
    97    24    25    1
    98   118   117    1
    99   173   171    1
   100    27    28    1
   101   111   110    1
   102   111   113   am
   103    38    37    1
   104    38    39    1
   105    30    29    2
   106    36    37    1
   107    36    33    1
   108    26    25    2
   109   128   126    1
   110    29    28    1
   111    29    31   am
   112   151   152    2
   113   171   170    2
   114   171   172    1
   115    32    33    1
   116   114   117    1
   117   114   113    1
   118   114   115    1
   119   170   169    1
   120    33    34    1
   121    34    35    2
   122   126   125    1
   123   184   183   ar
   124   184   182   ar
   125   162   161    1
   126   183   181   ar
   127   115   121   am
   128   115   116    2
   129   121   122    1
   130   169   168    1
   131   182   180   ar
   132   125   122    1
   133   125   127    1
   134   168   167    1
   135   181   179   ar
   136   161   158    1
   137   122   123    1
   138   136   135   ar
   139   157   158    1
   140   180   179   ar
   141   158   159    1
   142   137   135   ar
   143   135   134    1
   144   179   178    1
   145   123   124    2
   146   123   129   am
   147   167   164    1
   148   166   165    2
   149   134   133    1
   150   129   130    1
   151   165   164    1
   152   165   174   am
   153   159   160    2
   154   147   146    1
   155   164   163    1
   156   178   175    1
   157   175   174    1
   158   175   176    1
   159   148   146    1
   160   133   130    1
   161   130   131    1
   162   146   145    2
   163   176   177    2
   164   131   132    2
   165   145   144    1
   166   141   140    2
   167   139   138    1
   168   139   142    1
   169   139   140    1
   170   144   143    1
   171   143   142    1
