@<TRIPOS>MOLECULE
tmp/1sjcD00.pdb
 191 177 0 0 0
SMALL
GASTEIGER

@<TRIPOS>ATOM
      1  N        -17.9160   38.0390  116.9420 N.3    19  PHE19      -0.1241
      2  CA       -17.5400   39.0520  115.9980 C.3    19  PHE19       0.1605
      3  C        -16.8060   38.4190  114.8030 C.2    19  PHE19       0.2264
      4  O        -15.6690   37.8950  114.8670 O.2    19  PHE19      -0.2867
      5  CB       -16.7220   40.0730  116.8040 C.3    19  PHE19       0.0534
      6  CG       -16.0280   41.1640  116.0400 C.ar   19  PHE19      -0.0203
      7  CD1      -16.7290   42.2800  115.5800 C.ar   19  PHE19      -0.0042
      8  CD2      -14.6490   41.0970  115.8380 C.ar   19  PHE19      -0.0042
      9  CE1      -16.0680   43.3080  114.9060 C.ar   19  PHE19      -0.0003
     10  CE2      -13.9750   42.1080  115.1550 C.ar   19  PHE19      -0.0003
     11  CZ       -14.6920   43.2120  114.6940 C.ar   19  PHE19      -0.0000
     12  N        -15.1750   38.5230  111.1110 N.3    21  THR21      -0.1218
     13  CA       -14.2980   39.2540  110.2280 C.3    21  THR21       0.1862
     14  C        -14.0600   38.4900  108.9420 C.2    21  THR21       0.2287
     15  O        -14.5820   37.3880  108.7600 O.2    21  THR21      -0.2866
     16  CB       -12.9530   39.4490  110.9520 C.3    21  THR21       0.1770
     17  OG1      -13.1930   40.1730  112.1460 O.3    21  THR21      -0.2211
     18  CG2      -11.9770   40.1910  110.0430 C.3    21  THR21       0.0375
     19  N        -11.3670   37.2630  108.2750 N.3    23  PHE23      -0.1241
     20  CA       -10.4230   36.2340  108.6970 C.3    23  PHE23       0.1605
     21  C        -10.9890   35.1170  109.5900 C.2    23  PHE23       0.2264
     22  O        -10.3370   34.0910  109.7910 O.2    23  PHE23      -0.2867
     23  CB        -9.0580   36.8040  109.1720 C.3    23  PHE23       0.0534
     24  CG        -9.1360   37.8930  110.2170 C.ar   23  PHE23      -0.0203
     25  CD1       -9.2060   37.5660  111.5720 C.ar   23  PHE23      -0.0042
     26  CD2       -9.0940   39.2420  109.8560 C.ar   23  PHE23      -0.0042
     27  CE1       -9.2640   38.5570  112.5510 C.ar   23  PHE23      -0.0003
     28  CE2       -9.1440   40.2470  110.8230 C.ar   23  PHE23      -0.0003
     29  CZ        -9.2370   39.8990  112.1700 C.ar   23  PHE23      -0.0000
     30  N        -15.2880   35.1920  115.8800 N.3    26  GLN26      -0.1245
     31  CA       -14.7320   35.2130  117.2270 C.3    26  GLN26       0.1566
     32  C        -15.7740   35.2040  118.3250 C.2    26  GLN26       0.2260
     33  O        -16.6570   36.0470  118.3590 O.2    26  GLN26      -0.2867
     34  CB       -13.7300   36.3590  117.4490 C.3    26  GLN26       0.0367
     35  CG       -12.5690   35.8990  118.3460 C.3    26  GLN26       0.0905
     36  CD       -11.4120   36.8620  118.2660 C.2    26  GLN26       0.2608
     37  OE1      -11.5730   37.8860  117.5660 O.2    26  GLN26      -0.2717
     38  NE2      -10.2890   36.5390  118.9440 N.am   26  GLN26      -0.0878
     39  N         -3.5380   37.4610  118.6580 N.3    50  MET50      -0.1245
     40  CA        -4.6670   36.6150  118.8830 C.3    50  MET50       0.1570
     41  C         -4.2770   35.1670  118.9400 C.2    50  MET50       0.2261
     42  O         -3.0740   34.7900  118.9470 O.2    50  MET50      -0.2867
     43  CB        -5.8390   36.9350  117.9660 C.3    50  MET50       0.0387
     44  CG        -6.2850   38.3580  118.2560 C.3    50  MET50       0.0595
     45  SD        -7.7370   38.8240  117.3140 S.3    50  MET50      -0.1393
     46  CE        -8.3280   40.1670  118.3750 C.3    50  MET50       0.0692
     47  N         -4.6180   37.9570  111.3170 N.3    55  TYR55      -0.1241
     48  CA        -4.6140   39.3940  110.9680 C.3    55  TYR55       0.1605
     49  C         -3.1710   39.6750  110.5170 C.2    55  TYR55       0.2264
     50  O         -2.8980   40.3660  109.5150 O.2    55  TYR55      -0.2867
     51  CB        -5.0680   40.3390  112.1250 C.3    55  TYR55       0.0534
     52  CG        -4.6580   41.8370  112.0990 C.ar   55  TYR55      -0.0201
     53  CD1       -3.3750   42.2840  112.4450 C.ar   55  TYR55      -0.0009
     54  CD2       -5.6080   42.8230  111.8170 C.ar   55  TYR55      -0.0009
     55  CE1       -3.0330   43.6400  112.4630 C.ar   55  TYR55       0.0417
     56  CE2       -5.2930   44.1870  111.8360 C.ar   55  TYR55       0.0417
     57  CZ        -3.9930   44.6010  112.1500 C.ar   55  TYR55       0.1957
     58  OH        -3.6390   45.9380  112.1560 O.3    55  TYR55      -0.2866
     59  N        -17.0200   49.2510  115.4090 N.3   135  SER135     -0.1217
     60  CA       -16.7000   48.3200  114.3210 C.3   135  SER135      0.1889
     61  C        -17.7000   47.1440  114.2860 C.2   135  SER135      0.2288
     62  O        -17.6330   46.2390  115.1240 O.2   135  SER135     -0.2866
     63  CB       -15.2780   47.7870  114.5020 C.3   135  SER135      0.2089
     64  OG       -15.0920   46.5650  113.8220 O.3   135  SER135     -0.2183
     65  N        -18.3040   51.4700  111.4750 N.3   161  LYS161     -0.1245
     66  CA       -17.3800   50.7230  110.6740 C.3   161  LYS161      0.1561
     67  C        -17.9840   49.3240  110.3620 C.2   161  LYS161      0.2260
     68  O        -18.2820   48.5170  111.2340 O.2   161  LYS161     -0.2867
     69  CB       -16.0100   50.7300  111.3540 C.3   161  LYS161      0.0271
     70  CG       -15.0410   49.6100  110.9480 C.3   161  LYS161      0.0035
     71  CD       -13.7500   49.5730  111.7940 C.3   161  LYS161      0.0206
     72  CE       -12.7770   48.4750  111.3820 C.3   161  LYS161      0.1093
     73  NZ       -11.4580   48.5450  112.0560 N.3   161  LYS161     -0.1314
     74  N        -17.7350   45.6150  108.6800 N.3   163  LYS163     -0.1245
     75  CA       -16.8180   44.5860  108.2250 C.3   163  LYS163      0.1561
     76  C        -17.2430   44.0520  106.8440 C.2   163  LYS163      0.2260
     77  O        -18.3840   43.6370  106.6230 O.2   163  LYS163     -0.2867
     78  CB       -16.5780   43.4910  109.2690 C.3   163  LYS163      0.0271
     79  CG       -15.1280   43.3940  109.7400 C.3   163  LYS163      0.0035
     80  CD       -14.7070   44.4510  110.7600 C.3   163  LYS163      0.0206
     81  CE       -13.2900   44.9500  110.5330 C.3   163  LYS163      0.1093
     82  NZ       -12.4620   44.8700  111.7420 N.3   163  LYS163     -0.1314
     83  N        -14.2720   47.8960  106.1510 N.3   189  ASP189     -0.1239
     84  CA       -12.9930   47.3100  106.4460 C.3   189  ASP189      0.1674
     85  C        -12.9900   45.9570  105.8020 C.2   189  ASP189      0.2266
     86  O        -13.8990   45.1800  106.0700 O.2   189  ASP189     -0.2867
     87  CB       -12.7190   47.2530  107.9790 C.3   189  ASP189      0.1410
     88  CG       -11.3810   46.6670  108.3590 C.2   189  ASP189      0.3668
     89  OD1      -10.6290   46.1190  107.5730 O.co2 189  ASP189     -0.2456
     90  OD2      -11.1120   46.8310  109.6350 O.co2 189  ASP189     -0.2456
     91  N        -10.1400   43.8990  105.8570 N.3   191  ASN191     -0.1240
     92  CA        -9.0960   43.1000  106.4560 C.3   191  ASN191      0.1653
     93  C         -8.3340   42.2630  105.4640 C.2   191  ASN191      0.2266
     94  O         -8.1130   41.0700  105.7450 O.2   191  ASN191     -0.2867
     95  CB        -9.5720   42.2470  107.6380 C.3   191  ASN191      0.1155
     96  CG        -9.7210   43.1170  108.8500 C.2   191  ASN191      0.2627
     97  OD1      -10.8620   43.3360  109.2840 O.2   191  ASN191     -0.2716
     98  ND2       -8.5870   43.6550  109.3390 N.am  191  ASN191     -0.0877
     99  N         -4.3440   49.9280  107.3650 N.3   239  ASP239     -0.1239
    100  CA        -4.2020   49.4190  108.7020 C.3   239  ASP239      0.1674
    101  C         -2.9800   48.5350  108.7510 C.2   239  ASP239      0.2266
    102  O         -1.8640   48.9180  109.1260 O.2   239  ASP239     -0.2867
    103  CB        -5.4600   48.6110  109.1130 C.3   239  ASP239      0.1410
    104  CG        -5.4340   47.9950  110.5030 C.2   239  ASP239      0.3668
    105  OD1       -4.4530   47.8240  111.1820 O.co2 239  ASP239     -0.2456
    106  OD2       -6.6050   47.6180  110.9200 O.co2 239  ASP239     -0.2456
    107  N         -2.7990   51.6110  115.2140 N.3   263  LYS263     -0.1245
    108  CA        -2.9060   50.4770  116.1070 C.3   263  LYS263      0.1561
    109  C         -1.5660   50.3570  116.7940 C.2   263  LYS263      0.2260
    110  O         -0.5970   49.8720  116.2080 O.2   263  LYS263     -0.2867
    111  CB        -3.1570   49.1920  115.3420 C.3   263  LYS263      0.0271
    112  CG        -4.6060   48.8500  115.3890 C.3   263  LYS263      0.0035
    113  CD        -4.9470   47.6010  114.6310 C.3   263  LYS263      0.0206
    114  CE        -6.4250   47.6470  114.2360 C.3   263  LYS263      0.1093
    115  NZ        -6.8570   46.5170  113.4010 N.3   263  LYS263     -0.1314
    116  N         -8.8620   49.4600  116.8800 N.3   291  GLY291     -0.1210
    117  CA        -9.0290   48.6270  118.0400 C.3   291  GLY291      0.1956
    118  C         -8.7890   47.1690  117.7570 C.2   291  GLY291      0.2612
    119  O         -9.1210   46.6500  116.6630 O.2   291  GLY291     -0.2717
    120  N         -8.2160   46.5420  118.7930 N.am  292  MET292     -0.1965
    121  CA        -7.8670   45.1300  118.7870 C.3   292  MET292      0.1736
    122  C         -8.6780   44.3430  119.8210 C.2   292  MET292      0.2616
    123  O         -8.2530   43.3160  120.3520 O.2   292  MET292     -0.2715
    124  CB        -6.3490   44.9370  118.9630 C.3   292  MET292      0.0427
    125  CG        -5.5440   45.1730  117.6790 C.3   292  MET292      0.0599
    126  SD        -6.2880   44.3280  116.2540 S.3   292  MET292     -0.1393
    127  CE        -5.1820   42.9080  116.0410 C.3   292  MET292      0.0692
    128  N         -9.8840   44.8390  120.1020 N.am  293  ILE293     -0.1963
    129  CA       -10.7620   44.1950  121.0620 C.3   293  ILE293      0.1727
    130  C        -10.0330   44.0150  122.3730 C.2   293  ILE293      0.2616
    131  O         -9.8590   42.8880  122.8260 O.2   293  ILE293     -0.2715
    132  CB       -11.1620   42.8060  120.5720 C.3   293  ILE293      0.0290
    133  CG1      -11.6870   42.8370  119.1450 C.3   293  ILE293      0.0022
    134  CG2      -12.2410   42.2530  121.4830 C.3   293  ILE293      0.0023
    135  CD1      -11.7290   41.4430  118.5310 C.3   293  ILE293      0.0001
    136  N         -9.5630   45.1090  122.9560 N.am  294  GLU294     -0.1977
    137  CA        -8.7950   45.0120  124.1760 C.3   294  GLU294      0.1602
    138  C         -9.5500   45.1960  125.5050 C.2   294  GLU294      0.2287
    139  O        -10.7170   45.5650  125.6340 O.2   294  GLU294     -0.2864
    140  CB        -7.5360   45.8940  124.1180 C.3   294  GLU294      0.0415
    141  CG        -6.7480   45.7480  122.8180 C.3   294  GLU294      0.1163
    142  CD        -6.7050   47.0470  122.0900 C.2   294  GLU294      0.3649
    143  OE1       -7.6980   47.5340  121.5550 O.co2 294  GLU294     -0.2457
    144  OE2       -5.5110   47.5850  122.1390 O.co2 294  GLU294     -0.2457
    145  N         -7.5690   49.6470  126.1380 N.3   299  ARG299     -0.1245
    146  CA        -8.6170   50.6430  125.9570 C.3   299  ARG299      0.1563
    147  C         -8.2640   52.0170  126.5680 C.2   299  ARG299      0.2260
    148  O         -8.4800   53.0750  125.9820 O.2   299  ARG299     -0.2867
    149  CB        -9.8980   50.0440  126.5040 C.3   299  ARG299      0.0307
    150  CG       -11.1100   50.9290  126.3750 C.3   299  ARG299      0.0489
    151  CD       -12.3680   50.0970  126.1600 C.3   299  ARG299      0.2205
    152  NE       -12.0630   48.8280  125.4990 N.pl3 299  ARG299     -0.0865
    153  CZ       -12.3280   48.5530  124.2070 C.cat 299  ARG299      0.5346
    154  NH1      -12.9350   49.3930  123.3530 N.pl3 299  ARG299      0.1354
    155  NH2      -11.9700   47.3710  123.7410 N.pl3 299  ARG299      0.1354
    156  N        -11.9990   53.3360  116.7820 N.3   316  ASP316     -0.1239
    157  CA       -12.6070   52.0820  117.2070 C.3   316  ASP316      0.1674
    158  C        -12.4010   51.9920  118.7140 C.2   316  ASP316      0.2266
    159  O        -11.8590   51.0230  119.2410 O.2   316  ASP316     -0.2867
    160  CB       -11.8620   50.8760  116.6040 C.3   316  ASP316      0.1410
    161  CG       -12.2790   50.6180  115.1930 C.2   316  ASP316      0.3668
    162  OD1      -13.3240   51.0510  114.7590 O.co2 316  ASP316     -0.2456
    163  OD2      -11.4150   49.9000  114.5010 O.co2 316  ASP316     -0.2456
    164  N        -14.5400   51.8630  121.2530 N.3   318  SER318     -0.1217
    165  CA       -15.8790   51.5840  121.7430 C.3   318  SER318      0.1889
    166  C        -15.9110   51.3140  123.2540 C.2   318  SER318      0.2288
    167  O        -14.8880   50.9530  123.8370 O.2   318  SER318     -0.2866
    168  CB       -16.5040   50.4370  120.9490 C.3   318  SER318      0.2089
    169  OG       -16.3570   50.6110  119.5410 O.3   318  SER318     -0.2183
    170  N        -19.0110   46.8620  124.8110 N.3   322  ARG322     -0.1231
    171  CA       -19.3420   46.5780  123.4310 C.3   322  ARG322      0.1694
    172  C        -18.9030   45.1560  123.1570 C.2   322  ARG322      0.2592
    173  O        -19.4610   44.4290  122.3120 O.2   322  ARG322     -0.2718
    174  CB       -18.6440   47.5450  122.4660 C.3   322  ARG322      0.0321
    175  CG       -19.1570   47.4440  121.0320 C.3   322  ARG322      0.0489
    176  CD       -18.2560   46.6390  120.0760 C.3   322  ARG322      0.2205
    177  NE       -19.0120   46.0260  118.9700 N.pl3 322  ARG322     -0.0865
    178  CZ       -18.8450   44.7820  118.5010 C.cat 322  ARG322      0.5346
    179  NH1      -17.9650   43.9490  119.0190 N.pl3 322  ARG322      0.1354
    180  NH2      -19.6120   44.3310  117.5090 N.pl3 322  ARG322      0.1354
    181  N        -17.8850   44.7600  123.9140 N.am  323  PHE323     -0.1976
    182  CA       -17.3640   43.4220  123.7450 C.3   323  PHE323      0.1639
    183  C        -17.4250   42.6280  125.0370 C.2   323  PHE323      0.2290
    184  O        -17.6750   41.4120  125.0910 O.2   323  PHE323     -0.2864
    185  CB       -15.8690   43.5130  123.3750 C.3   323  PHE323      0.0560
    186  CG       -15.6120   44.0330  121.9970 C.ar  323  PHE323     -0.0200
    187  CD1      -15.0220   45.2810  121.8070 C.ar  323  PHE323     -0.0042
    188  CD2      -15.9570   43.2670  120.8850 C.ar  323  PHE323     -0.0042
    189  CE1      -14.7870   45.7580  120.5190 C.ar  323  PHE323     -0.0003
    190  CE2      -15.7110   43.7270  119.5920 C.ar  323  PHE323     -0.0003
    191  CZ       -15.1260   44.9790  119.4120 C.ar  323  PHE323     -0.0000
@<TRIPOS>BOND
     1    93    94    2
     2    93    92    1
     3    85    86    2
     4    85    84    1
     5    91    92    1
     6    83    84    1
     7    84    87    1
     8    92    95    1
     9    77    76    2
    10    76    75    1
    11    99   100    1
    12    89    88   ar
    13    95    96    1
    14    87    88    1
    15    75    74    1
    16    75    78    1
    17    19    20    1
    18    88    90   ar
    19    20    23    1
    20    20    21    1
    21   100   101    1
    22   100   103    1
    23   101   102    2
    24    15    14    2
    25    96    97    2
    26    96    98   am
    27    14    13    1
    28   103   104    1
    29    23    24    1
    30    78    79    1
    31    50    49    2
    32    21    22    2
    33    79    80    1
    34    26    24   ar
    35    26    28   ar
    36    18    16    1
    37    24    25   ar
    38    13    16    1
    39    13    12    1
    40    67    66    1
    41    67    68    2
    42   104   106   ar
    43   104   105   ar
    44    49    48    1
    45    81    80    1
    46    81    82    1
    47    66    69    1
    48    66    65    1
    49    28    29   ar
    50    70    69    1
    51    70    71    1
    52    16    17    1
    53    48    47    1
    54    48    51    1
    55    72    71    1
    56    72    73    1
    57    25    27   ar
    58    54    56   ar
    59    54    52   ar
    60    56    57   ar
    61    52    51    1
    62    52    53   ar
    63    57    58    1
    64    57    55   ar
    65    29    27   ar
    66    53    55   ar
    67   115   114    1
    68    64    63    1
    69   114   113    1
    70    61    60    1
    71    61    62    2
    72    60    63    1
    73    60    59    1
    74   163   161   ar
    75   113   112    1
    76    11     9   ar
    77    11    10   ar
    78   162   161   ar
    79     3     4    2
    80     3     2    1
    81     9     7   ar
    82    10     8   ar
    83   161   160    1
    84   107   108    1
    85   111   112    1
    86   111   108    1
    87     7     6   ar
    88     8     6   ar
    89    30    31    1
    90     2     5    1
    91     2     1    1
    92     6     5    1
    93   127   126    1
    94   108   109    1
    95   110   109    2
    96   126   125    1
    97   160   157    1
    98   119   118    2
    99   156   157    1
   100   116   117    1
   101   157   158    1
   102    31    34    1
   103    31    32    1
   104    45    44    1
   105    45    46    1
   106    34    35    1
   107   180   178    1
   108    37    36    2
   109   125   124    1
   110   118   117    1
   111   118   120   am
   112    43    44    1
   113    43    40    1
   114    36    35    1
   115    36    38   am
   116    32    33    2
   117   178   177    2
   118   178   179    1
   119   135   133    1
   120    39    40    1
   121   158   159    2
   122   121   120    1
   123   121   124    1
   124   121   122    1
   125    40    41    1
   126    41    42    2
   127   177   176    1
   128   133   132    1
   129   191   190   ar
   130   191   189   ar
   131   169   168    1
   132   190   188   ar
   133   122   128   am
   134   122   123    2
   135   176   175    1
   136   128   129    1
   137   189   187   ar
   138   132   129    1
   139   132   134    1
   140   188   186   ar
   141   168   165    1
   142   175   174    1
   143   129   130    1
   144   164   165    1
   145   143   142   ar
   146   165   166    1
   147   187   186   ar
   148   186   185    1
   149   142   144   ar
   150   142   141    1
   151   173   172    2
   152   130   131    2
   153   130   136   am
   154   174   171    1
   155   141   140    1
   156   136   137    1
   157   172   171    1
   158   172   181   am
   159   166   167    2
   160   154   153    1
   161   185   182    1
   162   171   170    1
   163   155   153    1
   164   182   181    1
   165   182   183    1
   166   140   137    1
   167   137   138    1
   168   153   152    2
   169   183   184    2
   170   152   151    1
   171   138   139    2
   172   146   145    1
   173   146   149    1
   174   146   147    1
   175   148   147    2
   176   151   150    1
   177   150   149    1
