@<TRIPOS>MOLECULE
tmp/1sjdD00.pdb
 191 176 0 0 0
SMALL
GASTEIGER

@<TRIPOS>ATOM
      1  N        -17.9700   37.7910  116.3130 N.3    19  PHE19      -0.1241
      2  CA       -17.5610   38.8100  115.3920 C.3    19  PHE19       0.1605
      3  C        -16.8260   38.2240  114.1720 C.2    19  PHE19       0.2264
      4  O        -15.7200   37.6510  114.2260 O.2    19  PHE19      -0.2867
      5  CB       -16.9090   39.9560  116.1890 C.3    19  PHE19       0.0534
      6  CG       -16.0480   40.9290  115.4330 C.ar   19  PHE19      -0.0203
      7  CD1      -16.5930   42.1100  114.9180 C.ar   19  PHE19      -0.0042
      8  CD2      -14.6760   40.6960  115.3060 C.ar   19  PHE19      -0.0042
      9  CE1      -15.7830   43.0360  114.2590 C.ar   19  PHE19      -0.0003
     10  CE2      -13.8510   41.6020  114.6420 C.ar   19  PHE19      -0.0003
     11  CZ       -14.4180   42.7690  114.1220 C.ar   19  PHE19      -0.0000
     12  N        -15.2370   38.4910  110.5030 N.3    21  THR21      -0.1218
     13  CA       -14.3420   39.2470  109.6720 C.3    21  THR21       0.1862
     14  C        -14.1390   38.5430  108.3380 C.2    21  THR21       0.2287
     15  O        -14.7580   37.5220  108.0370 O.2    21  THR21      -0.2866
     16  CB       -13.0100   39.2970  110.4520 C.3    21  THR21       0.1770
     17  OG1      -13.1260   40.1510  111.5670 O.3    21  THR21      -0.2211
     18  CG2      -11.8280   39.7000  109.5850 C.3    21  THR21       0.0375
     19  N        -11.4210   37.1500  107.6920 N.3    23  PHE23      -0.1241
     20  CA       -10.4860   36.0720  108.0500 C.3    23  PHE23       0.1605
     21  C        -11.0620   34.9570  108.9390 C.2    23  PHE23       0.2264
     22  O        -10.4310   33.9130  109.1240 O.2    23  PHE23      -0.2867
     23  CB        -9.1110   36.5770  108.5850 C.3    23  PHE23       0.0534
     24  CG        -9.1720   37.5380  109.7630 C.ar   23  PHE23      -0.0203
     25  CD1       -8.8390   38.8850  109.5990 C.ar   23  PHE23      -0.0042
     26  CD2       -9.5290   37.0910  111.0360 C.ar   23  PHE23      -0.0042
     27  CE1       -8.8770   39.7810  110.6660 C.ar   23  PHE23      -0.0003
     28  CE2       -9.5940   37.9740  112.1120 C.ar   23  PHE23      -0.0003
     29  CZ        -9.2680   39.3170  111.9210 C.ar   23  PHE23      -0.0000
     30  N        -15.4720   35.1740  115.2530 N.3    26  GLN26      -0.1245
     31  CA       -14.9830   35.2230  116.6180 C.3    26  GLN26       0.1566
     32  C        -16.0310   35.1630  117.7110 C.2    26  GLN26       0.2260
     33  O        -16.9370   35.9830  117.7280 O.2    26  GLN26      -0.2867
     34  CB       -14.0620   36.4170  116.8500 C.3    26  GLN26       0.0367
     35  CG       -12.7990   35.9550  117.5670 C.3    26  GLN26       0.0905
     36  CD       -11.6470   36.8710  117.2450 C.2    26  GLN26       0.2608
     37  OE1      -11.7720   37.6940  116.3130 O.2    26  GLN26      -0.2717
     38  NE2      -10.5520   36.7140  117.9900 N.am   26  GLN26      -0.0878
     39  N        -12.2910   35.9200  122.7740 N.3    29  ARG29      -0.1245
     40  CA       -11.0430   36.5130  122.4180 C.3    29  ARG29       0.1563
     41  C         -9.9420   35.9760  123.3130 C.2    29  ARG29       0.2260
     42  O         -9.9870   36.1550  124.5250 O.2    29  ARG29      -0.2867
     43  CB       -11.1140   38.0470  122.5150 C.3    29  ARG29       0.0307
     44  CG       -10.6670   38.8490  121.2800 C.3    29  ARG29       0.0489
     45  CD        -9.3370   38.4590  120.6250 C.3    29  ARG29       0.2205
     46  NE        -8.5340   39.6300  120.3120 N.pl3  29  ARG29      -0.0865
     47  CZ        -7.2340   39.5950  120.0960 C.cat  29  ARG29       0.5346
     48  NH1       -6.5660   38.4370  120.0950 N.pl3  29  ARG29       0.1354
     49  NH2       -6.6200   40.7610  119.8550 N.pl3  29  ARG29       0.1354
     50  N         -3.7010   37.1140  117.9120 N.3    50  MET50      -0.1245
     51  CA        -4.8360   36.2720  118.0960 C.3    50  MET50       0.1570
     52  C         -4.3870   34.8750  118.2410 C.2    50  MET50       0.2261
     53  O         -3.1900   34.5410  118.2640 O.2    50  MET50      -0.2867
     54  CB        -5.8600   36.3710  116.9890 C.3    50  MET50       0.0387
     55  CG        -6.1420   37.8280  116.7390 C.3    50  MET50       0.0595
     56  SD        -7.7840   38.0290  116.0650 S.3    50  MET50      -0.1393
     57  CE        -7.7410   36.7870  114.7400 C.3    50  MET50       0.0692
     58  N         -4.8230   37.6920  110.6780 N.3    55  TYR55      -0.1241
     59  CA        -4.7610   39.1210  110.3240 C.3    55  TYR55       0.1605
     60  C         -3.2820   39.3030  109.9630 C.2    55  TYR55       0.2264
     61  O         -2.9300   39.9930  108.9960 O.2    55  TYR55      -0.2867
     62  CB        -5.2440   40.1510  111.4260 C.3    55  TYR55       0.0534
     63  CG        -4.8000   41.6660  111.4060 C.ar   55  TYR55      -0.0201
     64  CD1       -3.5320   42.1050  111.8120 C.ar   55  TYR55      -0.0009
     65  CD2       -5.6960   42.6900  111.0760 C.ar   55  TYR55      -0.0009
     66  CE1       -3.1430   43.4500  111.8320 C.ar   55  TYR55       0.0417
     67  CE2       -5.3380   44.0460  111.0910 C.ar   55  TYR55       0.0417
     68  CZ        -4.0500   44.4430  111.4740 C.ar   55  TYR55       0.1957
     69  OH        -3.6320   45.7580  111.4770 O.3    55  TYR55      -0.2866
     70  N        -17.3010   49.1040  114.9320 N.3   135  SER135     -0.1217
     71  CA       -16.9940   48.1960  113.8400 C.3   135  SER135      0.1889
     72  C        -18.0470   47.0930  113.7450 C.2   135  SER135      0.2288
     73  O        -18.1320   46.2170  114.6090 O.2   135  SER135     -0.2866
     74  CB       -15.5910   47.6140  113.9700 C.3   135  SER135      0.2089
     75  OG       -15.2260   46.9030  112.7950 O.3   135  SER135     -0.2183
     76  N        -18.5850   51.4580  110.7480 N.3   161  LYS161     -0.1245
     77  CA       -17.6300   50.7680  109.9020 C.3   161  LYS161      0.1561
     78  C        -18.2540   49.3780  109.5740 C.2   161  LYS161      0.2260
     79  O        -18.7960   48.7180  110.4550 O.2   161  LYS161     -0.2867
     80  CB       -16.2740   50.7550  110.6230 C.3   161  LYS161      0.0271
     81  CG       -15.4120   49.5030  110.4770 C.3   161  LYS161      0.0035
     82  CD       -14.1210   49.5720  111.3050 C.3   161  LYS161      0.0206
     83  CE       -13.2850   48.3090  111.1480 C.3   161  LYS161      0.1093
     84  NZ       -11.8220   48.5340  111.1290 N.3   161  LYS161     -0.1314
     85  N        -17.7380   45.4560  108.1020 N.3   163  LYS163     -0.1245
     86  CA       -16.8750   44.3740  107.5900 C.3   163  LYS163      0.1561
     87  C        -17.3810   43.8930  106.2520 C.2   163  LYS163      0.2260
     88  O        -18.5640   43.5990  106.0790 O.2   163  LYS163     -0.2867
     89  CB       -16.5720   43.1730  108.5100 C.3   163  LYS163      0.0271
     90  CG       -15.1290   43.0830  108.9970 C.3   163  LYS163      0.0035
     91  CD       -14.8260   43.9820  110.1990 C.3   163  LYS163      0.0206
     92  CE       -13.3390   44.3000  110.3260 C.3   163  LYS163      0.1093
     93  NZ       -12.8810   44.7540  111.6570 N.3   163  LYS163     -0.1314
     94  N        -14.4400   47.7060  105.6080 N.3   189  ASP189     -0.1239
     95  CA       -13.1670   47.0790  105.9760 C.3   189  ASP189      0.1674
     96  C        -13.0630   45.7450  105.2910 C.2   189  ASP189      0.2266
     97  O        -13.7680   44.8260  105.6840 O.2   189  ASP189     -0.2867
     98  CB       -12.9610   46.9100  107.5150 C.3   189  ASP189      0.1410
     99  CG       -11.5430   46.4670  107.8700 C.2   189  ASP189      0.3668
    100  OD1      -10.7390   46.1310  107.0220 O.co2 189  ASP189     -0.2456
    101  OD2      -11.2360   46.5070  109.1570 O.co2 189  ASP189     -0.2456
    102  N        -10.3430   43.7740  105.1350 N.3   191  ASN191     -0.1240
    103  CA        -9.3120   42.9330  105.7450 C.3   191  ASN191      0.1653
    104  C         -8.5140   42.1010  104.7540 C.2   191  ASN191      0.2266
    105  O         -8.3070   40.9040  104.9900 O.2   191  ASN191     -0.2867
    106  CB        -9.7190   42.1080  106.9760 C.3   191  ASN191      0.1155
    107  CG        -9.8910   42.9880  108.1830 C.2   191  ASN191      0.2627
    108  OD1      -11.0000   43.0390  108.7100 O.2   191  ASN191     -0.2716
    109  ND2       -8.8360   43.7150  108.5710 N.am  191  ASN191     -0.0877
    110  N         -4.5780   49.8570  106.8130 N.3   239  ASP239     -0.1239
    111  CA        -4.4710   49.2970  108.1440 C.3   239  ASP239      0.1674
    112  C         -3.2520   48.3990  108.1560 C.2   239  ASP239      0.2266
    113  O         -2.1440   48.7420  108.5530 O.2   239  ASP239     -0.2867
    114  CB        -5.7480   48.4760  108.5360 C.3   239  ASP239      0.1410
    115  CG        -5.7080   47.7780  109.9030 C.2   239  ASP239      0.3668
    116  OD1       -4.6720   47.5570  110.5100 O.co2 239  ASP239     -0.2456
    117  OD2       -6.8930   47.3950  110.3880 O.co2 239  ASP239     -0.2456
    118  N         -3.0190   51.2980  114.5220 N.3   263  LYS263     -0.1245
    119  CA        -3.1860   50.2350  115.5170 C.3   263  LYS263      0.1561
    120  C         -1.8450   50.1590  116.2200 C.2   263  LYS263      0.2260
    121  O         -0.8570   49.7330  115.6200 O.2   263  LYS263     -0.2867
    122  CB        -3.4010   48.8900  114.8650 C.3   263  LYS263      0.0271
    123  CG        -4.8380   48.5110  114.9220 C.3   263  LYS263      0.0035
    124  CD        -5.0990   47.3240  114.0550 C.3   263  LYS263      0.0206
    125  CE        -6.3790   47.4770  113.2540 C.3   263  LYS263      0.1093
    126  NZ        -7.1920   46.2690  113.3400 N.3   263  LYS263     -0.1314
    127  N         -8.9420   49.2990  116.2520 N.3   291  GLY291     -0.1210
    128  CA        -9.1220   48.5410  117.4710 C.3   291  GLY291      0.1956
    129  C         -8.9320   47.0640  117.2520 C.2   291  GLY291      0.2612
    130  O         -9.2290   46.5790  116.1560 O.2   291  GLY291     -0.2717
    131  N         -8.4240   46.3870  118.3040 N.am  292  MET292     -0.1965
    132  CA        -8.1340   44.9510  118.2810 C.3   292  MET292      0.1736
    133  C         -8.9230   44.1700  119.3210 C.2   292  MET292      0.2616
    134  O         -8.4140   43.1950  119.9130 O.2   292  MET292     -0.2715
    135  CB        -6.6280   44.6480  118.4280 C.3   292  MET292      0.0427
    136  CG        -5.7790   45.1730  117.2660 C.3   292  MET292      0.0599
    137  SD        -6.1400   44.3780  115.6780 S.3   292  MET292     -0.1393
    138  CE        -5.1460   42.8610  115.7870 C.3   292  MET292      0.0692
    139  N        -10.1660   44.6350  119.5320 N.am  293  ILE293     -0.1963
    140  CA       -11.0550   44.0170  120.4820 C.3   293  ILE293      0.1727
    141  C        -10.2970   43.8160  121.7820 C.2   293  ILE293      0.2616
    142  O        -10.1470   42.6890  122.2120 O.2   293  ILE293     -0.2715
    143  CB       -11.3760   42.6330  119.9370 C.3   293  ILE293      0.0290
    144  CG1      -11.9640   42.7070  118.5390 C.3   293  ILE293      0.0022
    145  CG2      -12.3080   41.8640  120.8630 C.3   293  ILE293      0.0023
    146  CD1      -12.0050   41.3300  117.8830 C.3   293  ILE293      0.0001
    147  N         -9.7700   44.8760  122.3850 N.am  294  GLU294     -0.1977
    148  CA        -8.9630   44.6810  123.5780 C.3   294  GLU294      0.1602
    149  C         -9.6840   44.8030  124.9100 C.2   294  GLU294      0.2287
    150  O        -10.8450   45.1490  125.0000 O.2   294  GLU294     -0.2864
    151  CB        -7.7630   45.6460  123.5730 C.3   294  GLU294      0.0415
    152  CG        -6.8930   45.5580  122.3140 C.3   294  GLU294      0.1163
    153  CD        -6.9400   46.8410  121.5430 C.2   294  GLU294      0.3649
    154  OE1       -7.9920   47.3630  121.2030 O.co2 294  GLU294     -0.2457
    155  OE2       -5.7430   47.3270  121.3410 O.co2 294  GLU294     -0.2457
    156  N         -7.6380   49.3430  125.6060 N.3   299  ARG299     -0.1245
    157  CA        -8.6590   50.3400  125.3770 C.3   299  ARG299      0.1563
    158  C         -8.2660   51.6970  125.9780 C.2   299  ARG299      0.2260
    159  O         -8.3350   52.7390  125.3450 O.2   299  ARG299     -0.2867
    160  CB        -9.9640   49.7890  125.9140 C.3   299  ARG299      0.0307
    161  CG       -11.1510   50.7120  125.7500 C.3   299  ARG299      0.0489
    162  CD       -12.4650   49.9180  125.8000 C.3   299  ARG299      0.2205
    163  NE       -12.3370   48.6170  125.1290 N.pl3 299  ARG299     -0.0865
    164  CZ       -12.3150   48.4340  123.7980 C.cat 299  ARG299      0.5346
    165  NH1      -12.4160   49.4010  122.8910 N.pl3 299  ARG299      0.1354
    166  NH2      -12.1790   47.2060  123.3410 N.pl3 299  ARG299      0.1354
    167  N        -12.0820   53.1310  116.4520 N.3   316  ASP316     -0.1239
    168  CA       -12.6630   51.8660  116.8350 C.3   316  ASP316      0.1674
    169  C        -12.4920   51.7760  118.3360 C.2   316  ASP316      0.2266
    170  O        -11.9990   50.8010  118.8840 O.2   316  ASP316     -0.2867
    171  CB       -11.9570   50.6840  116.1550 C.3   316  ASP316      0.1410
    172  CG       -12.3960   50.5500  114.7210 C.2   316  ASP316      0.3668
    173  OD1      -13.3770   51.1230  114.2730 O.co2 316  ASP316     -0.2456
    174  OD2      -11.6030   49.7890  114.0050 O.co2 316  ASP316     -0.2456
    175  N        -14.7400   51.6560  120.6840 N.3   318  SER318     -0.1217
    176  CA       -16.0700   51.3080  121.1420 C.3   318  SER318      0.1889
    177  C        -16.0860   51.0180  122.6470 C.2   318  SER318      0.2288
    178  O        -15.0590   50.6310  123.1990 O.2   318  SER318     -0.2866
    179  CB       -16.6620   50.1790  120.2940 C.3   318  SER318      0.2089
    180  OG       -16.6760   50.5220  118.9020 O.3   318  SER318     -0.2183
    181  N        -18.0860   44.5740  123.2610 N.3   323  PHE323     -0.1241
    182  CA       -17.5620   43.2250  123.0880 C.3   323  PHE323      0.1605
    183  C        -17.5860   42.4500  124.3630 C.2   323  PHE323      0.2264
    184  O        -17.8330   41.2440  124.3840 O.2   323  PHE323     -0.2867
    185  CB       -16.0620   43.3040  122.7180 C.3   323  PHE323      0.0534
    186  CG       -15.8500   43.8830  121.3500 C.ar  323  PHE323     -0.0203
    187  CD1      -15.1430   45.0690  121.1560 C.ar  323  PHE323     -0.0042
    188  CD2      -16.4050   43.2430  120.2410 C.ar  323  PHE323     -0.0042
    189  CE1      -14.9870   45.5880  119.8710 C.ar  323  PHE323     -0.0003
    190  CE2      -16.2530   43.7490  118.9500 C.ar  323  PHE323     -0.0003
    191  CZ       -15.5370   44.9310  118.7680 C.ar  323  PHE323     -0.0000
@<TRIPOS>BOND
     1   104   105    2
     2   104   103    1
     3   102   103    1
     4    96    97    2
     5    96    95    1
     6    94    95    1
     7   103   106    1
     8    95    98    1
     9    88    87    2
    10    87    86    1
    11   110   111    1
    12   106   107    1
    13   100    99   ar
    14    98    99    1
    15    86    85    1
    16    86    89    1
    17    19    20    1
    18    99   101   ar
    19    15    14    2
    20    20    23    1
    21    20    21    1
    22   111   112    1
    23   111   114    1
    24   112   113    2
    25   107   109   am
    26   107   108    2
    27    14    13    1
    28    89    90    1
    29   114   115    1
    30    23    24    1
    31    21    22    2
    32    61    60    2
    33    90    91    1
    34    78    77    1
    35    78    79    2
    36    18    16    1
    37    25    24   ar
    38    25    27   ar
    39    13    16    1
    40    13    12    1
    41    24    26   ar
    42    77    80    1
    43    77    76    1
    44   115   117   ar
    45   115   116   ar
    46    60    59    1
    47    91    92    1
    48    59    58    1
    49    59    62    1
    50    92    93    1
    51    16    17    1
    52    81    80    1
    53    81    82    1
    54    27    29   ar
    55    26    28   ar
    56    65    67   ar
    57    65    63   ar
    58    67    68   ar
    59    84    83    1
    60    83    82    1
    61    63    62    1
    62    63    64   ar
    63    68    69    1
    64    68    66   ar
    65    64    66   ar
    66    29    28   ar
    67    75    74    1
    68   125   126    1
    69   125   124    1
    70    72    71    1
    71    72    73    2
    72    71    74    1
    73    71    70    1
    74   174   172   ar
    75   124   123    1
    76    11     9   ar
    77    11    10   ar
    78     3     4    2
    79     3     2    1
    80     9     7   ar
    81   173   172   ar
    82   118   119    1
    83    10     8   ar
    84   172   171    1
    85    57    56    1
    86   122   123    1
    87   122   119    1
    88     7     6   ar
    89    30    31    1
    90     8     6   ar
    91     2     5    1
    92     2     1    1
    93     6     5    1
    94   119   120    1
    95   121   120    2
    96   137   138    1
    97   137   136    1
    98    56    55    1
    99   171   168    1
   100   130   129    2
   101   127   128    1
   102    37    36    2
   103   167   168    1
   104    31    34    1
   105    31    32    1
   106    55    54    1
   107   168   169    1
   108    34    35    1
   109    54    51    1
   110    36    35    1
   111    36    38   am
   112   129   128    1
   113   129   131   am
   114   136   135    1
   115    32    33    2
   116   146   144    1
   117    50    51    1
   118    51    52    1
   119    52    53    2
   120   132   131    1
   121   132   135    1
   122   132   133    1
   123   169   170    2
   124   144   143    1
   125   191   190   ar
   126   191   189   ar
   127   180   179    1
   128   190   188   ar
   129   133   139   am
   130   133   134    2
   131   139   140    1
   132    49    47    1
   133   189   187   ar
   134   143   140    1
   135   143   145    1
   136    48    47    1
   137    47    46    2
   138   188   186   ar
   139   179   176    1
   140    46    45    1
   141   140   141    1
   142    45    44    1
   143   175   176    1
   144   176   177    1
   145   187   186   ar
   146   154   153   ar
   147    44    43    1
   148   155   153   ar
   149   186   185    1
   150   153   152    1
   151   141   142    2
   152   141   147   am
   153   152   151    1
   154   147   148    1
   155    40    43    1
   156    40    39    1
   157    40    41    1
   158   177   178    2
   159   185   182    1
   160   165   164    1
   161   182   181    1
   162   182   183    1
   163    41    42    2
   164   166   164    1
   165   151   148    1
   166   148   149    1
   167   164   163    2
   168   183   184    2
   169   149   150    2
   170   163   162    1
   171   159   158    2
   172   157   156    1
   173   157   160    1
   174   157   158    1
   175   161   162    1
   176   161   160    1
