@<TRIPOS>MOLECULE
tmp/1sjnA01.pdb
 90 85 0 0 0
SMALL
GASTEIGER

@<TRIPOS>ATOM
      1  N          2.5430   -4.2640  -17.0950 N.3    19  ALA19      -0.1231
      2  CA         1.1130   -4.6540  -16.9410 C.3    19  ALA19       0.1694
      3  C          0.0780   -3.5800  -17.3920 C.2    19  ALA19       0.2592
      4  O         -0.9620   -3.9320  -17.9860 O.2    19  ALA19      -0.2718
      5  CB         0.8190   -5.0970  -15.4750 C.3    19  ALA19       0.0304
      6  N          0.3510   -2.2960  -17.0960 N.am   20  HIS20      -0.1976
      7  CA        -0.4620   -1.1360  -17.5570 C.3    20  HIS20       0.1656
      8  C          0.4010    0.0810  -17.9530 C.2    20  HIS20       0.2291
      9  O          1.5710    0.2240  -17.5550 O.2    20  HIS20      -0.2864
     10  CB        -1.4830   -0.7070  -16.4860 C.3    20  HIS20       0.0771
     11  CG        -2.2850   -1.8420  -15.9060 C.ar   20  HIS20       0.0820
     12  ND1       -3.2920   -2.4740  -16.6010 N.ar   20  HIS20      -0.2267
     13  CD2       -2.2290   -2.4560  -14.7000 C.ar   20  HIS20       0.1154
     14  CE1       -3.8240   -3.4270  -15.8520 C.ar   20  HIS20       0.1986
     15  NE2       -3.1990   -3.4360  -14.6920 N.ar   20  HIS20      -0.2212
     16  N          2.9040    2.2690  -15.5620 N.3    23  ASP23      -0.1239
     17  CA         3.3260    1.3800  -14.4890 C.3    23  ASP23       0.1674
     18  C          4.8320    1.5180  -14.3170 C.2    23  ASP23       0.2266
     19  O          5.5750    1.5750  -15.2940 O.2    23  ASP23      -0.2867
     20  CB         3.0210   -0.0940  -14.7850 C.3    23  ASP23       0.1410
     21  CG         1.6780   -0.5470  -14.2410 C.2    23  ASP23       0.3668
     22  OD1        0.8740    0.3460  -13.7900 O.co2  23  ASP23      -0.2456
     23  OD2        1.3350   -1.7690  -14.3230 O.co2  23  ASP23      -0.2456
     24  N          7.1000   -7.0240  -14.8370 N.3    27  ASP27      -0.1239
     25  CA         7.0830   -8.2090  -13.9950 C.3    27  ASP27       0.1674
     26  C          8.1030   -9.2410  -14.5260 C.2    27  ASP27       0.2266
     27  O          8.2600   -9.4440  -15.7490 O.2    27  ASP27      -0.2867
     28  CB         5.7000   -8.8380  -13.9900 C.3    27  ASP27       0.1410
     29  CG         4.6890   -8.0670  -13.1610 C.2    27  ASP27       0.3668
     30  OD1        5.0560   -7.0890  -12.4560 O.co2  27  ASP27      -0.2456
     31  OD2        3.4820   -8.4310  -13.1750 O.co2  27  ASP27      -0.2456
     32  N          8.6710   -6.9760   -4.4640 N.3    62  PRO62      -0.2102
     33  CA         7.5890   -7.9590   -4.4540 C.3    62  PRO62       0.1504
     34  C          6.2930   -7.4520   -5.0270 C.2    62  PRO62       0.2576
     35  O          6.0510   -6.2560   -5.0430 O.2    62  PRO62      -0.2718
     36  CB         7.4050   -8.2710   -2.9630 C.3    62  PRO62       0.0282
     37  CG         8.5530   -7.5950   -2.2660 C.3    62  PRO62       0.0208
     38  CD         8.9550   -6.4800   -3.1020 C.3    62  PRO62       0.0893
     39  N          5.4600   -8.3600   -5.5270 N.am   63  ARG63      -0.1966
     40  CA         4.1210   -7.9920   -5.9720 C.3    63  ARG63       0.1729
     41  C          3.1680   -7.9410   -4.7760 C.2    63  ARG63       0.2617
     42  O          3.1990   -8.8060   -3.9380 O.2    63  ARG63      -0.2715
     43  CB         3.6580   -9.0420   -6.9590 C.3    63  ARG63       0.0348
     44  CG         4.5470   -9.0350   -8.2150 C.3    63  ARG63       0.0492
     45  CD         4.0280   -9.9370   -9.3540 C.3    63  ARG63       0.2205
     46  NE         2.6920   -9.5710   -9.7750 N.pl3  63  ARG63      -0.0865
     47  CZ         1.7160  -10.3840  -10.1460 C.cat  63  ARG63       0.5346
     48  NH1        1.8620  -11.7170  -10.2320 N.pl3  63  ARG63       0.1354
     49  NH2        0.5550   -9.8500  -10.4820 N.pl3  63  ARG63       0.1354
     50  N          2.2740   -6.9700   -4.7640 N.am   64  SER64      -0.1936
     51  CA         1.3770   -6.8010   -3.6060 C.3    64  SER64       0.2055
     52  C          0.4000   -7.9200   -3.4190 C.2    64  SER64       0.2643
     53  O          0.0930   -8.3060   -2.2490 O.2    64  SER64      -0.2714
     54  CB         0.6710   -5.4300   -3.6670 C.3    64  SER64       0.2130
     55  OG        -0.4150   -5.4100   -4.5400 O.3    64  SER64      -0.2179
     56  N         -0.1710   -8.4180   -4.5190 N.am   65  GLY65      -0.1954
     57  CA        -1.2690   -9.3640   -4.3980 C.3    65  GLY65       0.1869
     58  C         -0.8390  -10.6570   -3.7450 C.2    65  GLY65       0.2309
     59  O         -1.4540  -11.1370   -2.8030 O.2    65  GLY65      -0.2863
     60  N         -2.0810  -12.2340   -0.1930 N.3    69  ARG69      -0.1245
     61  CA        -2.8840  -13.4390   -0.3380 C.3    69  ARG69       0.1563
     62  C         -2.1920  -14.6770    0.2500 C.2    69  ARG69       0.2260
     63  O         -2.8560  -15.5120    0.8640 O.2    69  ARG69      -0.2867
     64  CB        -3.1890  -13.6800   -1.7910 C.3    69  ARG69       0.0307
     65  CG        -4.2970  -12.8740   -2.3680 C.3    69  ARG69       0.0489
     66  CD        -4.7040  -13.3800   -3.8010 C.3    69  ARG69       0.2205
     67  NE        -4.4730  -12.2860   -4.7460 N.pl3  69  ARG69      -0.0865
     68  CZ        -3.5220  -12.2070   -5.6870 C.cat  69  ARG69       0.5346
     69  NH1       -2.6520  -13.1900   -5.9370 N.pl3  69  ARG69       0.1354
     70  NH2       -3.4930  -11.1150   -6.4350 N.pl3  69  ARG69       0.1354
     71  N          4.4400  -14.8700  -12.5510 N.3   109  ARG109     -0.1245
     72  CA         5.1070  -13.5720  -12.3280 C.3   109  ARG109      0.1563
     73  C          5.3470  -13.4190  -10.8460 C.2   109  ARG109      0.2260
     74  O          4.3770  -13.2970  -10.0650 O.2   109  ARG109     -0.2867
     75  CB         4.2580  -12.4430  -12.9050 C.3   109  ARG109      0.0307
     76  CG         4.3480  -12.4040  -14.4530 C.3   109  ARG109      0.0489
     77  CD         3.3780  -11.4640  -15.1400 C.3   109  ARG109      0.2205
     78  NE         2.0290  -11.9790  -15.0160 N.pl3 109  ARG109     -0.0865
     79  CZ         1.0560  -11.4120  -14.3260 C.cat 109  ARG109      0.5346
     80  NH1        1.2430  -10.2810  -13.6870 N.pl3 109  ARG109      0.1354
     81  NH2       -0.1290  -11.9910  -14.2790 N.pl3 109  ARG109      0.1354
     82  N          8.7140   -7.6760   -9.4890 N.3   112  GLN112     -0.1245
     83  CA         8.7110   -6.6230  -10.4960 C.3   112  GLN112      0.1566
     84  C         10.0750   -5.9010  -10.5060 C.2   112  GLN112      0.2260
     85  O         10.6870   -5.7000   -9.4620 O.2   112  GLN112     -0.2867
     86  CB         7.5460   -5.7220  -10.1160 C.3   112  GLN112      0.0367
     87  CG         7.4180   -4.3820  -10.6040 C.3   112  GLN112      0.0905
     88  CD         6.2570   -3.6940   -9.8070 C.2   112  GLN112      0.2608
     89  OE1        5.7280   -2.7410  -10.2620 O.2   112  GLN112     -0.2717
     90  NE2        5.8690   -4.2600   -8.6260 N.am  112  GLN112     -0.0878
@<TRIPOS>BOND
     1     4     3    2
     2     8     7    1
     3     8     9    2
     4     7     6    1
     5     7    10    1
     6     3     6   am
     7     3     2    1
     8     1     2    1
     9     2     5    1
    10    12    11   ar
    11    12    14   ar
    12    10    11    1
    13    11    13   ar
    14    14    15   ar
    15    27    26    2
    16    16    17    1
    17    19    18    2
    18    77    78    1
    19    77    76    1
    20    78    79    2
    21    24    25    1
    22    20    17    1
    23    20    21    1
    24    13    15   ar
    25    26    25    1
    26    17    18    1
    27    76    75    1
    28    79    81    1
    29    79    80    1
    30    23    21   ar
    31    21    22   ar
    32    25    28    1
    33    28    29    1
    34    31    29   ar
    35    29    30   ar
    36    75    72    1
    37    71    72    1
    38    72    73    1
    39    73    74    2
    40    87    86    1
    41    87    88    1
    42    84    83    1
    43    84    85    2
    44    83    86    1
    45    83    82    1
    46    49    47    1
    47    89    88    2
    48    48    47    1
    49    47    46    2
    50    88    90   am
    51    46    45    1
    52    45    44    1
    53    44    43    1
    54    43    40    1
    55    70    68    1
    56    40    39    1
    57    40    41    1
    58    69    68    1
    59    68    67    2
    60    39    34   am
    61    35    34    2
    62    34    33    1
    63    41    50   am
    64    41    42    2
    65    50    51    1
    66    67    66    1
    67    55    54    1
    68    56    57    1
    69    56    52   am
    70    32    33    1
    71    32    38    1
    72    33    36    1
    73    57    58    1
    74    66    65    1
    75    58    59    2
    76    54    51    1
    77    51    52    1
    78    52    53    2
    79    38    37    1
    80    36    37    1
    81    65    64    1
    82    64    61    1
    83    61    60    1
    84    61    62    1
    85    62    63    2
