@<TRIPOS>MOLECULE
tmp/1sjwA00.pdb
 202 194 0 0 0
SMALL
GASTEIGER

@<TRIPOS>ATOM
      1  N         17.5410    7.5760   14.9040 N.3    14  PHE14      -0.1241
      2  CA        17.3160    6.2240   14.4330 C.3    14  PHE14       0.1605
      3  C         18.3840    5.7950   13.4180 C.2    14  PHE14       0.2264
      4  O         18.7010    4.5890   13.3560 O.2    14  PHE14      -0.2867
      5  CB        15.9220    6.1080   13.7660 C.3    14  PHE14       0.0534
      6  CG        14.7910    6.1370   14.7720 C.ar   14  PHE14      -0.0203
      7  CD1       14.5790    5.0320   15.6030 C.ar   14  PHE14      -0.0042
      8  CD2       13.9420    7.2280   14.9190 C.ar   14  PHE14      -0.0042
      9  CE1       13.5490    5.0370   16.5210 C.ar   14  PHE14      -0.0003
     10  CE2       12.8930    7.1990   15.8380 C.ar   14  PHE14      -0.0003
     11  CZ        12.7050    6.1050   16.6500 C.ar   14  PHE14      -0.0000
     12  N          5.2360    7.2750   23.5280 N.3    32  ASN32      -0.1240
     13  CA         4.7770    6.6490   22.2970 C.3    32  ASN32       0.1653
     14  C          3.9450    5.4350   22.6980 C.2    32  ASN32       0.2266
     15  O          4.5410    4.5270   23.2970 O.2    32  ASN32      -0.2867
     16  CB         5.9670    6.2920   21.4100 C.3    32  ASN32       0.1155
     17  CG         5.5070    5.6810   20.0970 C.2    32  ASN32       0.2627
     18  OD1        4.5070    4.9460   20.0320 O.2    32  ASN32      -0.2716
     19  ND2        6.2110    5.9410   19.0030 N.am   32  ASN32      -0.0877
     20  N          2.8950    2.8580   21.3960 N.3    34  ALA34      -0.1231
     21  CA         3.2460    1.5380   20.8520 C.3    34  ALA34       0.1694
     22  C          4.3160    0.8340   21.6760 C.2    34  ALA34       0.2592
     23  O          4.4300   -0.3850   21.6220 O.2    34  ALA34      -0.2718
     24  CB         3.7040    1.6490   19.4110 C.3    34  ALA34       0.0304
     25  N          5.1090    1.5440   22.4670 N.am   35  THR35      -0.1953
     26  CA         6.2900    1.0350   23.1300 C.3    35  THR35       0.1897
     27  C          6.0430    0.2750   24.4180 C.2    35  THR35       0.2313
     28  O          6.8920   -0.4460   24.9730 O.2    35  THR35      -0.2863
     29  CB         7.2450    2.1930   23.5680 C.3    35  THR35       0.1794
     30  OG1        6.6750    2.7490   24.7770 O.3    35  THR35      -0.2208
     31  CG2        7.4090    3.2210   22.4730 C.3    35  THR35       0.0378
     32  N          4.3160   -2.2490   25.1120 N.3    37  GLU37      -0.1231
     33  CA         4.3370   -3.7160   25.3470 C.3    37  GLU37       0.1699
     34  C          5.7610   -4.2560   25.4360 C.2    37  GLU37       0.2592
     35  O          6.0290   -5.4480   25.6830 O.2    37  GLU37      -0.2718
     36  CB         3.4920   -4.3780   24.2470 C.3    37  GLU37       0.0402
     37  CG         4.2580   -4.3860   22.9360 C.3    37  GLU37       0.1161
     38  CD         3.5490   -5.2520   21.9230 C.2    37  GLU37       0.3649
     39  OE1        3.3250   -6.4550   22.1810 O.co2  37  GLU37      -0.2457
     40  OE2        3.2320   -4.6590   20.8760 O.co2  37  GLU37      -0.2457
     41  N          6.7710   -3.3890   25.2530 N.am   38  HIS38      -0.1976
     42  CA         8.1510   -3.8460   25.3140 C.3    38  HIS38       0.1656
     43  C          8.7720   -3.6440   26.6920 C.2    38  HIS38       0.2291
     44  O          9.8620   -4.1580   26.9770 O.2    38  HIS38      -0.2864
     45  CB         9.0080   -3.0800   24.2870 C.3    38  HIS38       0.0771
     46  CG         8.7390   -3.5870   22.8980 C.ar   38  HIS38       0.0820
     47  ND1        7.8320   -2.9630   22.0720 N.ar   38  HIS38      -0.2267
     48  CD2        9.2220   -4.6410   22.2060 C.ar   38  HIS38       0.1154
     49  CE1        7.7640   -3.5790   20.9280 C.ar   38  HIS38       0.1986
     50  NE2        8.5940   -4.6050   20.9790 N.ar   38  HIS38      -0.2212
     51  N         13.6780    3.0180   22.6160 N.3    50  LEU50      -0.1245
     52  CA        13.0570    2.7660   21.3210 C.3    50  LEU50       0.1561
     53  C         14.0480    2.7690   20.1530 C.2    50  LEU50       0.2260
     54  O         14.0130    1.9080   19.2520 O.2    50  LEU50      -0.2867
     55  CB        11.9550    3.7920   21.1140 C.3    50  LEU50       0.0270
     56  CG        11.2700    3.8020   19.7430 C.3    50  LEU50       0.0019
     57  CD1       10.5850    2.4940   19.4430 C.3    50  LEU50       0.0001
     58  CD2       10.2580    4.9490   19.6920 C.3    50  LEU50       0.0001
     59  N         15.8060   -0.4450   20.2670 N.3    53  TRP53      -0.1227
     60  CA        14.9510   -1.5410   19.8050 C.3    53  TRP53       0.1737
     61  C         14.8590   -1.5550   18.2810 C.2    53  TRP53       0.2595
     62  O         14.9320   -2.6160   17.6280 O.2    53  TRP53      -0.2718
     63  CB        13.5740   -1.3890   20.4690 C.3    53  TRP53       0.0564
     64  CG        12.6540   -2.4720   19.9360 C.ar   53  TRP53       0.0003
     65  CD1       12.5910   -3.7210   20.4600 C.ar   53  TRP53       0.0946
     66  CD2       11.7420   -2.3790   18.8480 C.ar   53  TRP53       0.0152
     67  NE1       11.6550   -4.4340   19.7330 N.ar   53  TRP53      -0.2442
     68  CE2       11.1290   -3.6450   18.7440 C.ar   53  TRP53       0.0810
     69  CE3       11.3990   -1.3580   17.9540 C.ar   53  TRP53       0.0012
     70  CZ2       10.1800   -3.9120   17.7780 C.ar   53  TRP53       0.0191
     71  CZ3       10.4350   -1.6420   16.9810 C.ar   53  TRP53       0.0001
     72  CH2        9.8540   -2.9210   16.9230 C.ar   53  TRP53       0.0015
     73  N         14.6960   -0.3790   17.6810 N.am   54  VAL54      -0.1980
     74  CA        14.6030   -0.3420   16.2200 C.3    54  VAL54       0.1595
     75  C         15.8720   -0.9110   15.6170 C.2    54  VAL54       0.2287
     76  O         15.8620   -1.7150   14.6700 O.2    54  VAL54      -0.2864
     77  CB        14.3510    1.0760   15.7180 C.3    54  VAL54       0.0276
     78  CG1       14.5720    1.2030   14.2250 C.3    54  VAL54       0.0022
     79  CG2       12.9360    1.4820   16.0980 C.3    54  VAL54       0.0022
     80  N         15.7570   -4.2280   13.3110 N.3    58  PHE58      -0.1241
     81  CA        15.8240   -3.9800   11.8700 C.3    58  PHE58       0.1605
     82  C         17.2520   -3.6790   11.4090 C.2    58  PHE58       0.2264
     83  O         17.4260   -3.3100   10.2450 O.2    58  PHE58      -0.2867
     84  CB        14.8470   -2.8700   11.5430 C.3    58  PHE58       0.0534
     85  CG        13.4260   -3.1920   11.8890 C.ar   58  PHE58      -0.0203
     86  CD1       12.8740   -4.3590   11.4500 C.ar   58  PHE58      -0.0042
     87  CD2       12.6360   -2.3080   12.6080 C.ar   58  PHE58      -0.0042
     88  CE1       11.5630   -4.6610   11.6950 C.ar   58  PHE58      -0.0003
     89  CE2       11.3200   -2.5960   12.8660 C.ar   58  PHE58      -0.0003
     90  CZ        10.7740   -3.7590   12.4010 C.ar   58  PHE58      -0.0000
     91  N         16.2730    5.4620    7.8900 N.3    64  LEU64      -0.1245
     92  CA        15.0110    6.1520    7.7760 C.3    64  LEU64       0.1561
     93  C         15.2140    7.3780    6.8810 C.2    64  LEU64       0.2260
     94  O         15.9310    8.2810    7.2760 O.2    64  LEU64      -0.2867
     95  CB        14.6120    6.5200    9.1800 C.3    64  LEU64       0.0270
     96  CG        13.2590    6.6950    9.6980 C.3    64  LEU64       0.0019
     97  CD1       12.2500    5.6160    9.2350 C.3    64  LEU64       0.0001
     98  CD2       13.2000    6.7590   11.2080 C.3    64  LEU64       0.0001
     99  N         11.3940    3.5230    5.8180 N.3    82  LEU82      -0.1245
    100  CA        12.3490    2.6810    6.5230 C.3    82  LEU82       0.1561
    101  C         12.9060    1.6360    5.6090 C.2    82  LEU82       0.2260
    102  O         12.1450    0.9660    4.8840 O.2    82  LEU82      -0.2867
    103  CB        11.6480    2.0140    7.7060 C.3    82  LEU82       0.0270
    104  CG        12.5010    1.0740    8.5390 C.3    82  LEU82       0.0019
    105  CD1       13.6630    1.7800    9.1730 C.3    82  LEU82       0.0001
    106  CD2       11.6480    0.3950    9.6280 C.3    82  LEU82       0.0001
    107  N         10.5060  -10.1800   16.3920 N.3    90  LEU90      -0.1231
    108  CA         9.5100   -9.1270   16.1460 C.3    90  LEU90       0.1693
    109  C          8.1560   -9.7460   16.4290 C.2    90  LEU90       0.2591
    110  O          7.7930  -10.7040   15.6880 O.2    90  LEU90      -0.2718
    111  CB         9.6380   -8.6630   14.7070 C.3    90  LEU90       0.0284
    112  CG         8.6200   -7.6200   14.2190 C.3    90  LEU90       0.0019
    113  CD1        8.7030   -6.3530   15.0550 C.3    90  LEU90       0.0001
    114  CD2        8.8020   -7.3190   12.7420 C.3    90  LEU90       0.0001
    115  N          7.4220   -9.2110   17.4070 N.am   91  VAL91      -0.1980
    116  CA         6.1030   -9.7280   17.7940 C.3    91  VAL91       0.1595
    117  C          6.0720  -11.2510   17.7780 C.2    91  VAL91       0.2287
    118  O          5.1910  -11.8830   17.2160 O.2    91  VAL91      -0.2864
    119  CB         4.9690   -9.0800   16.9590 C.3    91  VAL91       0.0276
    120  CG1        4.9030   -7.5850   17.2330 C.3    91  VAL91       0.0022
    121  CG2        5.0660   -9.2690   15.4590 C.3    91  VAL91       0.0022
    122  N         13.8650   -5.3900    3.7900 N.3   100  PHE100     -0.1241
    123  CA        12.5550   -4.8070    3.5040 C.3   100  PHE100      0.1605
    124  C         12.6580   -3.3140    3.4460 C.2   100  PHE100      0.2264
    125  O         13.6090   -2.7140    3.9560 O.2   100  PHE100     -0.2867
    126  CB        11.5000   -5.2140    4.5420 C.3   100  PHE100      0.0534
    127  CG        11.7760   -4.5840    5.9010 C.ar  100  PHE100     -0.0203
    128  CD1       11.0850   -3.4170    6.2810 C.ar  100  PHE100     -0.0042
    129  CD2       12.6630   -5.1160    6.8140 C.ar  100  PHE100     -0.0042
    130  CE1       11.2800   -2.7750    7.4710 C.ar  100  PHE100     -0.0003
    131  CE2       12.9050   -4.4910    8.0160 C.ar  100  PHE100     -0.0003
    132  CZ        12.1910   -3.3320    8.3280 C.ar  100  PHE100     -0.0000
    133  N          6.5620    5.0530    6.2250 N.3   104  GLN104     -0.1245
    134  CA         6.0370    5.2410    7.5680 C.3   104  GLN104      0.1566
    135  C          5.6440    6.7000    7.7630 C.2   104  GLN104      0.2260
    136  O          6.2790    7.5780    7.1810 O.2   104  GLN104     -0.2867
    137  CB         6.9510    4.9490    8.7470 C.3   104  GLN104      0.0367
    138  CG         8.0670    4.0390    8.5760 C.3   104  GLN104      0.0905
    139  CD         8.7660    3.7410    9.9130 C.2   104  GLN104      0.2608
    140  OE1        9.2300    4.5850   10.6680 O.2   104  GLN104     -0.2717
    141  NE2        8.8380    2.4490   10.1730 N.am  104  GLN104     -0.0878
    142  N          4.9290    9.4290   10.8970 N.3   106  HIS106     -0.1241
    143  CA         5.0070    9.7570   12.2860 C.3   106  HIS106      0.1621
    144  C          4.2760   11.0780   12.5590 C.2   106  HIS106      0.2264
    145  O          4.3870   11.9970   11.7280 O.2   106  HIS106     -0.2867
    146  CB         6.4840    9.9220   12.7000 C.3   106  HIS106      0.0745
    147  CG         7.2870    8.6640   12.6790 C.ar  106  HIS106      0.0817
    148  ND1        7.9560    8.1910   13.7870 N.ar  106  HIS106     -0.2268
    149  CD2        7.5480    7.7890   11.6800 C.ar  106  HIS106      0.1154
    150  CE1        8.5860    7.0740   13.4750 C.ar  106  HIS106      0.1986
    151  NE2        8.3560    6.8080   12.2010 N.ar  106  HIS106     -0.2212
    152  N          4.0760   11.0940   20.6090 N.3   118  HIS118     -0.1241
    153  CA         4.6620   10.5360   19.3920 C.3   118  HIS118      0.1621
    154  C          3.8710    9.2880   19.0160 C.2   118  HIS118      0.2264
    155  O          3.7900    8.3460   19.7660 O.2   118  HIS118     -0.2867
    156  CB         6.1110   10.1270   19.6840 C.3   118  HIS118      0.0745
    157  CG         6.8300    9.5050   18.5330 C.ar  118  HIS118      0.0817
    158  ND1        8.0420    8.8860   18.6980 N.ar  118  HIS118     -0.2268
    159  CD2        6.5500    9.4390   17.2070 C.ar  118  HIS118      0.1154
    160  CE1        8.4720    8.4490   17.5280 C.ar  118  HIS118      0.1986
    161  NE2        7.5840    8.7740   16.6090 N.ar  118  HIS118     -0.2212
    162  N          3.5300    6.5260   15.6760 N.3   120  ASP120     -0.1239
    163  CA         4.0450    6.1210   14.4120 C.3   120  ASP120      0.1674
    164  C          3.1610    5.0580   13.7750 C.2   120  ASP120      0.2266
    165  O          2.5740    4.2520   14.4940 O.2   120  ASP120     -0.2867
    166  CB         5.4860    5.6860   14.5160 C.3   120  ASP120      0.1410
    167  CG         5.6260    4.4820   15.4080 C.2   120  ASP120      0.3668
    168  OD1        5.8070    4.7010   16.5960 O.co2 120  ASP120     -0.2456
    169  OD2        5.5810    3.3600   14.8050 O.co2 120  ASP120     -0.2456
    170  N          3.8830    2.4360   10.9510 N.3   122  PRO122     -0.2116
    171  CA         4.6590    1.6660    9.9670 C.3   122  PRO122      0.1372
    172  C          3.7620    1.0780    8.8890 C.2   122  PRO122      0.2244
    173  O          2.5700    0.9430    9.1110 O.2   122  PRO122     -0.2868
    174  CB         5.2870    0.5620   10.7850 C.3   122  PRO122      0.0268
    175  CG         5.1850    1.0050   12.2180 C.3   122  PRO122      0.0207
    176  CD         3.9380    1.8230   12.2950 C.3   122  PRO122      0.0892
    177  N          3.0590   -1.9420    8.2630 N.3   124  PHE124     -0.1241
    178  CA         3.2140   -3.2730    8.8040 C.3   124  PHE124      0.1605
    179  C          2.8890   -4.3360    7.7940 C.2   124  PHE124      0.2264
    180  O          3.6040   -5.3370    7.6900 O.2   124  PHE124     -0.2867
    181  CB         2.1790   -3.4460    9.9350 C.3   124  PHE124      0.0534
    182  CG         2.2260   -2.5480   11.1150 C.ar  124  PHE124     -0.0203
    183  CD1        1.3510   -1.4730   11.3450 C.ar  124  PHE124     -0.0042
    184  CD2        3.1750   -2.8100   12.0720 C.ar  124  PHE124     -0.0042
    185  CE1        1.5450   -0.7690   12.5040 C.ar  124  PHE124     -0.0003
    186  CE2        3.2720   -2.0750   13.2650 C.ar  124  PHE124     -0.0003
    187  CZ         2.4000   -1.0570   13.5060 C.ar  124  PHE124     -0.0000
    188  N          5.6150   -4.7050    5.2070 N.3   127  THR127     -0.1203
    189  CA         6.8030   -5.2940    5.8310 C.3   127  THR127      0.1994
    190  C          6.5850   -6.7920    5.9310 C.2   127  THR127      0.2617
    191  O          7.4340   -7.6010    5.5740 O.2   127  THR127     -0.2717
    192  CB         7.1090   -4.6830    7.2070 C.3   127  THR127      0.1784
    193  OG1        7.4230   -3.2950    7.0440 O.3   127  THR127     -0.2211
    194  CG2        8.3080   -5.3480    7.8640 C.3   127  THR127      0.0376
    195  N          5.4470   -7.2130    6.4760 N.am  128  LEU128     -0.1979
    196  CA         5.1900   -8.6420    6.6240 C.3   128  LEU128      0.1596
    197  C          5.2190   -9.3760    5.2960 C.2   128  LEU128      0.2287
    198  O          5.7600  -10.4630    5.2210 O.2   128  LEU128     -0.2864
    199  CB         3.8390   -8.8490    7.3340 C.3   128  LEU128      0.0297
    200  CG         3.8000   -8.4820    8.8200 C.3   128  LEU128      0.0022
    201  CD1        2.3590   -8.5610    9.3190 C.3   128  LEU128      0.0001
    202  CD2        4.7180   -9.3330    9.6870 C.3   128  LEU128      0.0001
@<TRIPOS>BOND
     1   124   123    1
     2   124   125    2
     3   123   122    1
     4   123   126    1
     5   126   127    1
     6   102   101    2
     7   188   189    1
     8   198   197    2
     9   197   196    1
    10   191   190    2
    11   101   100    1
    12    99   100    1
    13   189   190    1
    14   189   192    1
    15   127   128   ar
    16   127   129   ar
    17   190   195   am
    18   133   134    1
    19   128   130   ar
    20   195   196    1
    21   100   103    1
    22   196   199    1
    23   129   131   ar
    24    93    94    2
    25    93    92    1
    26   193   192    1
    27   136   135    2
    28   192   194    1
    29   199   200    1
    30   130   132   ar
    31   134   135    1
    32   134   137    1
    33   180   179    2
    34   103   104    1
    35    92    91    1
    36    92    95    1
    37   179   178    1
    38   131   132   ar
    39   177   178    1
    40   104   105    1
    41   104   106    1
    42   138   137    1
    43   138   139    1
    44   178   181    1
    45   200   201    1
    46   200   202    1
    47   172   173    2
    48   172   171    1
    49    95    96    1
    50    97    96    1
    51    96    98    1
    52   139   141   am
    53   139   140    2
    54   181   182    1
    55   171   174    1
    56   171   170    1
    57    83    82    2
    58   174   175    1
    59   142   143    1
    60   170   176    1
    61   182   183   ar
    62   182   184   ar
    63   183   185   ar
    64    82    81    1
    65    86    88   ar
    66    86    85   ar
    67    84    81    1
    68    84    85    1
    69   149   151   ar
    70   149   147   ar
    71    88    90   ar
    72   145   144    2
    73    81    80    1
    74    85    87   ar
    75   184   186   ar
    76   151   150   ar
    77   175   176    1
    78   143   144    1
    79   143   146    1
    80    90    89   ar
    81   185   187   ar
    82    87    89   ar
    83   147   146    1
    84   147   148   ar
    85   114   112    1
    86   186   187   ar
    87     4     3    2
    88     3     2    1
    89   150   148   ar
    90     5     2    1
    91     5     6    1
    92   164   163    1
    93   164   165    2
    94   112   111    1
    95   112   113    1
    96    78    77    1
    97   163   166    1
    98   163   162    1
    99     2     1    1
   100   166   167    1
   101    76    75    2
   102   111   108    1
   103     6     8   ar
   104     6     7   ar
   105   169   167   ar
   106     8    10   ar
   107   167   168   ar
   108   121   119    1
   109     7     9   ar
   110    75    74    1
   111   110   109    2
   112    77    79    1
   113    77    74    1
   114    10    11   ar
   115   108   107    1
   116   108   109    1
   117    74    73    1
   118   109   115   am
   119     9    11   ar
   120   161   159   ar
   121   161   160   ar
   122    72    71   ar
   123    72    70   ar
   124   119   120    1
   125   119   116    1
   126    71    69   ar
   127   159   157   ar
   128   118   117    2
   129   115   116    1
   130   160   158   ar
   131    62    61    2
   132    73    61   am
   133   117   116    1
   134    70    68   ar
   135    69    66   ar
   136    61    60    1
   137   157   158   ar
   138   157   156    1
   139    68    66   ar
   140    68    67   ar
   141    66    64   ar
   142    19    17   am
   143   154   153    1
   144   154   155    2
   145    54    53    2
   146   153   156    1
   147   153   152    1
   148    24    21    1
   149    57    56    1
   150    58    56    1
   151    67    65   ar
   152    56    55    1
   153    60    59    1
   154    60    63    1
   155    64    65   ar
   156    64    63    1
   157    18    17    2
   158    17    16    1
   159    53    52    1
   160    21    20    1
   161    21    22    1
   162    40    38   ar
   163    49    50   ar
   164    49    47   ar
   165    50    48   ar
   166    55    52    1
   167    52    51    1
   168    16    13    1
   169    23    22    2
   170    22    25   am
   171    38    39   ar
   172    38    37    1
   173    47    46   ar
   174    48    46   ar
   175    13    14    1
   176    13    12    1
   177    25    26    1
   178    31    29    1
   179    14    15    2
   180    46    45    1
   181    37    36    1
   182    26    29    1
   183    26    27    1
   184    29    30    1
   185    36    33    1
   186    45    42    1
   187    27    28    2
   188    32    33    1
   189    41    42    1
   190    41    34   am
   191    42    43    1
   192    33    34    1
   193    34    35    2
   194    43    44    2
