@<TRIPOS>MOLECULE
tmp/1sjxA00.pdb
 97 89 0 0 0
SMALL
GASTEIGER

@<TRIPOS>ATOM
      1  N          0.7660   53.8040   -4.4870 N.3    24  ALA24      -0.1245
      2  CA         0.0840   55.0370   -4.7970 C.3    24  ALA24       0.1562
      3  C          0.4620   55.4390   -6.2140 C.2    24  ALA24       0.2260
      4  O          1.6000   55.2360   -6.6360 O.2    24  ALA24      -0.2867
      5  CB         0.4880   56.1240   -3.8030 C.3    24  ALA24       0.0290
      6  N          1.3610   62.0550   -6.5110 N.3    28  ILE28      -0.1245
      7  CA         2.1100   61.6010   -5.3380 C.3    28  ILE28       0.1561
      8  C          2.5210   62.7310   -4.4010 C.2    28  ILE28       0.2260
      9  O          2.4980   62.5710   -3.1790 O.2    28  ILE28      -0.2867
     10  CB         3.3830   60.8180   -5.8020 C.3    28  ILE28       0.0252
     11  CG1        3.0140   59.6320   -6.7200 C.3    28  ILE28       0.0019
     12  CG2        4.2310   60.3510   -4.5950 C.3    28  ILE28       0.0019
     13  CD1        1.9050   58.7250   -6.1720 C.3    28  ILE28       0.0001
     14  N          0.3980   63.5980   -1.3310 N.3    31  ILE31      -0.1231
     15  CA         0.2880   62.7180   -0.1650 C.3    31  ILE31       0.1692
     16  C          1.0810   63.2420    1.0180 C.2    31  ILE31       0.2592
     17  O          2.2340   63.6540    0.8690 O.2    31  ILE31      -0.2718
     18  CB         0.7110   61.2680   -0.5140 C.3    31  ILE31       0.0266
     19  CG1       -0.1990   60.6870   -1.5980 C.3    31  ILE31       0.0019
     20  CG2        0.7010   60.3590    0.7360 C.3    31  ILE31       0.0020
     21  CD1        0.4000   59.4840   -2.3290 C.3    31  ILE31       0.0001
     22  N          0.4370   63.2530    2.1870 N.am   32  ASN32      -0.1974
     23  CA         1.1290   63.5030    3.4510 C.3    32  ASN32       0.1688
     24  C          1.2770   62.1750    4.2350 C.2    32  ASN32       0.2292
     25  O          2.0470   61.2980    3.8130 O.2    32  ASN32      -0.2864
     26  CB         0.4250   64.6030    4.2550 C.3    32  ASN32       0.1181
     27  CG         1.3670   65.3390    5.1850 C.2    32  ASN32       0.2629
     28  OD1        2.4090   65.8530    4.7540 O.2    32  ASN32      -0.2716
     29  ND2        1.0050   65.4100    6.4770 N.am   32  ASN32      -0.0877
     30  N          0.3050   58.4200    5.6190 N.3    34  MET34      -0.1245
     31  CA        -0.3780   57.2400    5.1120 C.3    34  MET34       0.1570
     32  C         -0.6160   56.2410    6.2490 C.2    34  MET34       0.2261
     33  O          0.0140   56.3290    7.3110 O.2    34  MET34      -0.2867
     34  CB         0.4000   56.6050    3.9610 C.3    34  MET34       0.0387
     35  CG         0.3560   57.4260    2.6740 C.3    34  MET34       0.0595
     36  SD         0.9950   56.5590    1.2200 S.3    34  MET34      -0.1393
     37  CE        -0.3260   55.4090    0.9570 C.3    34  MET34       0.0692
     38  N          2.0910   56.1500    9.1700 N.3    51  ILE51      -0.1231
     39  CA         3.4570   56.6130    8.9400 C.3    51  ILE51       0.1692
     40  C          3.4230   57.9960    8.3030 C.2    51  ILE51       0.2593
     41  O          2.5650   58.2800    7.4450 O.2    51  ILE51      -0.2718
     42  CB         4.2480   55.5930    8.0570 C.3    51  ILE51       0.0266
     43  CG1        5.7450   55.9290    7.9980 C.3    51  ILE51       0.0019
     44  CG2        3.6240   55.4590    6.6470 C.3    51  ILE51       0.0020
     45  CD1        6.6300   54.7650    7.4750 C.3    51  ILE51       0.0001
     46  N          4.3440   58.8540    8.7380 N.am   52  THR52      -0.1939
     47  CA         4.4900   60.1760    8.1610 C.3    52  THR52       0.2028
     48  C          5.5700   60.1100    7.0900 C.2    52  THR52       0.2642
     49  O          6.3230   59.1330    7.0340 O.2    52  THR52      -0.2714
     50  CB         4.8670   61.2410    9.2420 C.3    52  THR52       0.1808
     51  OG1        6.1840   60.9810    9.7380 O.3    52  THR52      -0.2208
     52  CG2        3.9620   61.1360   10.4790 C.3    52  THR52       0.0379
     53  N          5.6650   61.1520    6.2630 N.am   53  SER53      -0.1949
     54  CA         6.6640   61.1940    5.1930 C.3    53  SER53       0.1924
     55  C          8.0930   61.0110    5.7050 C.2    53  SER53       0.2314
     56  O          8.9310   60.4240    5.0160 O.2    53  SER53      -0.2863
     57  CB         6.5700   62.5090    4.4130 C.3    53  SER53       0.2116
     58  OG         6.8230   63.6160    5.2590 O.3    53  SER53      -0.2180
     59  N          7.8650   52.1760    4.1550 N.3    71  LYS71      -0.1245
     60  CA         7.6300   52.7640    2.8370 C.3    71  LYS71       0.1561
     61  C          8.8540   52.6240    1.9410 C.2    71  LYS71       0.2260
     62  O          9.9930   52.5260    2.4200 O.2    71  LYS71      -0.2867
     63  CB         7.2290   54.2390    2.9650 C.3    71  LYS71       0.0271
     64  CG         8.2840   55.0890    3.6700 C.3    71  LYS71       0.0035
     65  CD         7.8320   56.5150    3.9230 C.3    71  LYS71       0.0206
     66  CE         8.8690   57.2490    4.7680 C.3    71  LYS71       0.1093
     67  NZ        10.1970   57.3540    4.0810 N.3    71  LYS71      -0.1314
     68  N          9.9530   54.9830   -1.0620 N.3    73  ASN73      -0.1240
     69  CA         9.6810   56.2090   -1.8020 C.3    73  ASN73       0.1653
     70  C          9.8470   56.0400   -3.3140 C.2    73  ASN73       0.2266
     71  O          8.9980   56.4890   -4.0880 O.2    73  ASN73      -0.2867
     72  CB        10.5710   57.3450   -1.2930 C.3    73  ASN73       0.1155
     73  CG         9.9360   58.1230   -0.1520 C.2    73  ASN73       0.2627
     74  OD1        9.8580   59.3510   -0.2030 O.2    73  ASN73      -0.2716
     75  ND2        9.4920   57.4190    0.8870 N.am   73  ASN73      -0.0877
     76  N          6.9090   54.3410   -4.6750 N.3    76  ASN76      -0.1225
     77  CA         5.6370   54.9460   -4.2660 C.3    76  ASN76       0.1785
     78  C          4.7220   53.9690   -3.5060 C.2    76  ASN76       0.2598
     79  O          3.4940   53.9960   -3.6510 O.2    76  ASN76      -0.2718
     80  CB         4.9040   55.5410   -5.4790 C.3    76  ASN76       0.1169
     81  CG         5.6430   56.7280   -6.0910 C.2    76  ASN76       0.2627
     82  OD1        6.1310   57.6140   -5.3810 O.2    76  ASN76      -0.2716
     83  ND2        5.7160   56.7530   -7.4100 N.am   76  ASN76      -0.0877
     84  N          5.3210   53.0910   -2.7100 N.am   77  THR77      -0.1939
     85  CA         4.5230   52.0970   -2.0080 C.3    77  THR77       0.2028
     86  C          4.7960   52.0150   -0.5030 C.2    77  THR77       0.2642
     87  O          5.9130   52.2720   -0.0390 O.2    77  THR77      -0.2714
     88  CB         4.5040   50.6900   -2.7620 C.3    77  THR77       0.1808
     89  OG1        4.4350   49.5970   -1.8260 O.3    77  THR77      -0.2208
     90  CG2        5.7510   50.4280   -3.4900 C.3    77  THR77       0.0379
     91  N          3.7340   51.7430    0.2520 N.am   78  VAL78      -0.1977
     92  CA         3.8210   51.5340    1.6920 C.3    78  VAL78       0.1596
     93  C          3.4620   50.0890    2.0030 C.2    78  VAL78       0.2287
     94  O          2.6520   49.4760    1.2970 O.2    78  VAL78      -0.2864
     95  CB         2.9370   52.5250    2.5070 C.3    78  VAL78       0.0276
     96  CG1        3.3990   53.9720    2.2740 C.3    78  VAL78       0.0022
     97  CG2        1.4800   52.3810    2.1560 C.3    78  VAL78       0.0022
@<TRIPOS>BOND
     1    83    81   am
     2    11    13    1
     3    11    10    1
     4     4     3    2
     5     6     7    1
     6     3     2    1
     7    81    80    1
     8    81    82    2
     9    10     7    1
    10    10    12    1
    11    80    77    1
    12     7     8    1
    13     2     1    1
    14     2     5    1
    15    76    77    1
    16     8     9    2
    17    77    78    1
    18    71    70    2
    19    79    78    2
    20    78    84   am
    21    90    88    1
    22    70    69    1
    23    88    85    1
    24    88    89    1
    25    84    85    1
    26    21    19    1
    27    85    86    1
    28    69    72    1
    29    69    68    1
    30    19    18    1
    31    14    15    1
    32    72    73    1
    33    18    15    1
    34    18    20    1
    35    86    87    2
    36    86    91   am
    37    74    73    2
    38    15    16    1
    39    73    75   am
    40    91    92    1
    41    17    16    2
    42    37    36    1
    43    16    22   am
    44    36    35    1
    45    94    93    2
    46    92    93    1
    47    92    95    1
    48    61    62    2
    49    61    60    1
    50    97    95    1
    51    22    23    1
    52    96    95    1
    53    35    34    1
    54    60    63    1
    55    60    59    1
    56    63    64    1
    57    23    24    1
    58    23    26    1
    59    64    65    1
    60    25    24    2
    61    65    66    1
    62    34    31    1
    63    67    66    1
    64    26    27    1
    65    57    54    1
    66    57    58    1
    67    28    27    2
    68    56    55    2
    69    31    30    1
    70    31    32    1
    71    27    29   am
    72    54    55    1
    73    54    53    1
    74    32    33    2
    75    53    48   am
    76    44    42    1
    77    49    48    2
    78    48    47    1
    79    41    40    2
    80    45    43    1
    81    43    42    1
    82    42    39    1
    83    47    46    1
    84    47    50    1
    85    40    46   am
    86    40    39    1
    87    39    38    1
    88    50    51    1
    89    50    52    1
