@<TRIPOS>MOLECULE
tmp/1sjxA01.pdb
 91 85 0 0 0
SMALL
GASTEIGER

@<TRIPOS>ATOM
      1  N          0.5530   62.0200    5.3450 N.3    33  ASP33      -0.1225
      2  CA         0.5940   60.7730    6.1130 C.3    33  ASP33       0.1805
      3  C         -0.1080   59.6560    5.3420 C.2    33  ASP33       0.2598
      4  O         -0.9880   59.9210    4.5080 O.2    33  ASP33      -0.2718
      5  CB        -0.0870   60.9270    7.4830 C.3    33  ASP33       0.1424
      6  CG         0.6450   61.8830    8.4030 C.2    33  ASP33       0.3668
      7  OD1        0.0960   62.1820    9.4890 O.co2  33  ASP33      -0.2456
      8  OD2        1.7640   62.3910    8.1340 O.co2  33  ASP33      -0.2456
      9  N          0.3050   58.4200    5.6190 N.am   34  MET34      -0.1965
     10  CA        -0.3780   57.2400    5.1120 C.3    34  MET34       0.1740
     11  C         -0.6160   56.2410    6.2490 C.2    34  MET34       0.2656
     12  O          0.0140   56.3290    7.3110 O.2    34  MET34      -0.2711
     13  CB         0.4000   56.6050    3.9610 C.3    34  MET34       0.0427
     14  CG         0.3560   57.4260    2.6740 C.3    34  MET34       0.0599
     15  SD         0.9950   56.5590    1.2200 S.3    34  MET34      -0.1393
     16  CE        -0.3260   55.4090    0.9570 C.3    34  MET34       0.0692
     17  N         -1.5490   55.3140    6.0340 N.am   35  GLY35      -0.1730
     18  CA        -1.8540   54.3190    7.0420 C.2    35  GLY35       0.1340
     19  C         -2.6190   53.1080    6.5510 C.2    35  GLY35       0.2521
     20  O         -3.1040   53.0730    5.4160 O.2    35  GLY35      -0.2816
     21  N         -5.7930   50.5620    7.7480 N.3    37  TYR37      -0.1241
     22  CA        -6.9700   50.3480    8.5610 C.3    37  TYR37       0.1605
     23  C         -7.3810   48.9020    8.2910 C.2    37  TYR37       0.2264
     24  O         -6.9680   48.3100    7.2870 O.2    37  TYR37      -0.2867
     25  CB        -8.1100   51.2890    8.1250 C.3    37  TYR37       0.0534
     26  CG        -7.8980   52.7500    8.4720 C.ar   37  TYR37      -0.0201
     27  CD1       -6.9640   53.5250    7.7780 C.ar   37  TYR37      -0.0009
     28  CD2       -8.6320   53.3580    9.4950 C.ar   37  TYR37      -0.0009
     29  CE1       -6.7580   54.8750    8.1020 C.ar   37  TYR37       0.0417
     30  CE2       -8.4360   54.7190    9.8270 C.ar   37  TYR37       0.0417
     31  CZ        -7.4960   55.4630    9.1180 C.ar   37  TYR37       0.1957
     32  OH        -7.2810   56.7870    9.4170 O.3    37  TYR37      -0.2866
     33  N         -8.0130   52.0720   12.7520 N.3    47  LEU47      -0.1245
     34  CA        -6.6370   52.3980   12.4200 C.3    47  LEU47       0.1561
     35  C         -5.6990   51.4000   13.0830 C.2    47  LEU47       0.2260
     36  O         -5.7090   51.2230   14.3020 O.2    47  LEU47      -0.2867
     37  CB        -6.2910   53.8100   12.8930 C.3    47  LEU47       0.0270
     38  CG        -5.3220   54.7320   12.1300 C.3    47  LEU47       0.0019
     39  CD1       -4.5100   55.6160   13.1010 C.3    47  LEU47       0.0001
     40  CD2       -4.4120   54.0560   11.1000 C.3    47  LEU47       0.0001
     41  N          0.1550   53.7940   11.1350 N.3    50  ALA50      -0.1245
     42  CA         0.3000   55.0240   10.3550 C.3    50  ALA50       0.1562
     43  C          1.7620   55.4310   10.2420 C.2    50  ALA50       0.2260
     44  O          2.5730   55.0950   11.1060 O.2    50  ALA50      -0.2867
     45  CB        -0.5260   56.1660   10.9650 C.3    50  ALA50       0.0290
     46  N          3.0470   54.8090   14.1940 N.3    58  LYS58      -0.1245
     47  CA         2.2260   54.4730   15.3370 C.3    58  LYS58       0.1561
     48  C          1.3850   53.2490   15.0500 C.2    58  LYS58       0.2260
     49  O          1.0630   52.9550   13.8900 O.2    58  LYS58      -0.2867
     50  CB         1.3410   55.6530   15.7730 C.3    58  LYS58       0.0271
     51  CG         0.3070   56.1540   14.7550 C.3    58  LYS58       0.0035
     52  CD        -0.1210   57.5670   15.2040 C.3    58  LYS58       0.0206
     53  CE        -1.2760   58.1240   14.4230 C.3    58  LYS58       0.1093
     54  NZ        -1.5190   59.5380   14.8530 N.3    58  LYS58      -0.1314
     55  N         -4.7350   53.8800    3.2320 N.3    96  ALA96      -0.1231
     56  CA        -5.3110   55.2190    3.3030 C.3    96  ALA96       0.1694
     57  C         -4.2020   56.2640    3.1490 C.2    96  ALA96       0.2592
     58  O         -3.0570   56.0150    3.4930 O.2    96  ALA96      -0.2718
     59  CB        -6.0480   55.4100    4.6200 C.3    96  ALA96       0.0304
     60  N         -4.5430   57.4210    2.6100 N.am   97  ALA97      -0.1966
     61  CA        -3.5670   58.4970    2.4550 C.3    97  ALA97       0.1728
     62  C         -4.2190   59.8080    2.7970 C.2    97  ALA97       0.2616
     63  O         -5.3550   60.0670    2.3830 O.2    97  ALA97      -0.2715
     64  CB        -3.0150   58.5430    1.0260 C.3    97  ALA97       0.0334
     65  N         -3.4910   60.6330    3.5410 N.am   98  GLU98      -0.1977
     66  CA        -3.9130   61.9950    3.8600 C.3    98  GLU98       0.1602
     67  C         -3.4650   62.9130    2.7270 C.2    98  GLU98       0.2287
     68  O         -2.3470   62.7850    2.2180 O.2    98  GLU98      -0.2864
     69  CB        -3.2690   62.4200    5.1880 C.3    98  GLU98       0.0415
     70  CG        -3.5820   63.8310    5.6990 C.3    98  GLU98       0.1163
     71  CD        -2.6660   64.2400    6.8480 C.2    98  GLU98       0.3649
     72  OE1       -1.4720   63.9080    6.8090 O.co2  98  GLU98      -0.2457
     73  OE2       -3.1340   64.8800    7.8140 O.co2  98  GLU98      -0.2457
     74  N         -5.4730   65.9300    8.6640 N.3   104  GLY104     -0.1210
     75  CA        -6.2850   65.4250    9.7540 C.3   104  GLY104      0.1956
     76  C         -7.4050   64.4880    9.3380 C.2   104  GLY104      0.2613
     77  O         -8.0570   63.9290   10.2060 O.2   104  GLY104     -0.2717
     78  N         -7.6580   64.3430    8.0320 N.am  105  THR105     -0.1938
     79  CA        -8.6300   63.3700    7.5380 C.3   105  THR105      0.2028
     80  C         -8.0250   62.5190    6.4290 C.2   105  THR105      0.2642
     81  O         -7.0130   62.8910    5.8180 O.2   105  THR105     -0.2714
     82  CB        -9.9630   64.0380    7.0490 C.3   105  THR105      0.1808
     83  OG1       -9.7230   64.8340    5.8780 O.3   105  THR105     -0.2208
     84  CG2      -10.4800   65.0680    8.0510 C.3   105  THR105      0.0379
     85  N         -8.6430   61.3700    6.1740 N.am  106  VAL106     -0.1977
     86  CA        -8.2800   60.5520    5.0260 C.3   106  VAL106      0.1596
     87  C         -8.7420   61.2280    3.7330 C.2   106  VAL106      0.2287
     88  O         -9.9110   61.5790    3.5860 O.2   106  VAL106     -0.2864
     89  CB        -8.8610   59.1200    5.1460 C.3   106  VAL106      0.0276
     90  CG1       -8.5720   58.2990    3.8870 C.3   106  VAL106      0.0022
     91  CG2       -8.2900   58.4210    6.3910 C.3   106  VAL106      0.0022
@<TRIPOS>BOND
     1    16    15    1
     2    64    61    1
     3    15    14    1
     4    68    67    2
     5    63    62    2
     6    61    60    1
     7    61    62    1
     8    60    57   am
     9    14    13    1
    10    67    66    1
    11    62    65   am
    12    57    56    1
    13    57    58    2
    14    55    56    1
    15    56    59    1
    16    65    66    1
    17    88    87    2
    18    87    86    1
    19    66    69    1
    20    90    89    1
    21    13    10    1
    22     4     3    2
    23    86    89    1
    24    86    85    1
    25    10     9    1
    26    10    11    1
    27    89    91    1
    28    69    70    1
    29     3     9   am
    30     3     2    1
    31     1     2    1
    32    20    19    2
    33    70    71    1
    34    81    80    2
    35    83    82    1
    36    17    11    1
    37    17    18    2
    38     2     5    1
    39    85    80   am
    40    11    12    2
    41    80    79    1
    42    19    18    1
    43    72    71   ar
    44    71    73   ar
    45    82    79    1
    46    82    84    1
    47    24    23    2
    48     5     6    1
    49    79    78    1
    50    21    22    1
    51    27    29   ar
    52    27    26   ar
    53    78    76   am
    54    29    31   ar
    55    25    26    1
    56    25    22    1
    57     8     6   ar
    58    23    22    1
    59     6     7   ar
    60    26    28   ar
    61    74    75    1
    62    31    32    1
    63    31    30   ar
    64    76    75    1
    65    76    77    2
    66    28    30   ar
    67    43    42    1
    68    43    44    2
    69    42    45    1
    70    42    41    1
    71    40    38    1
    72    38    37    1
    73    38    39    1
    74    34    33    1
    75    34    37    1
    76    34    35    1
    77    35    36    2
    78    49    48    2
    79    46    47    1
    80    53    54    1
    81    53    52    1
    82    51    52    1
    83    51    50    1
    84    48    47    1
    85    47    50    1
