@<TRIPOS>MOLECULE
tmp/1sk7A00.pdb
 209 201 0 0 0
SMALL
GASTEIGER

@<TRIPOS>ATOM
      1  N         17.3270   -9.1770   19.5980 N.3     8  ASN8       -0.1240
      2  CA        16.4200   -8.5980   20.5690 C.3     8  ASN8        0.1653
      3  C         17.2070   -8.1620   21.8100 C.2     8  ASN8        0.2266
      4  O         16.9670   -7.0870   22.3560 O.2     8  ASN8       -0.2867
      5  CB        15.3150   -9.6080   20.9270 C.3     8  ASN8        0.1155
      6  CG        14.3150   -9.7960   19.8020 C.2     8  ASN8        0.2627
      7  OD1       14.2530   -8.9860   18.8640 O.2     8  ASN8       -0.2716
      8  ND2       13.5000  -10.8480   19.8980 N.am    8  ASN8       -0.0877
      9  N         19.4840   -5.1130   20.9600 N.3    11  THR11      -0.1218
     10  CA        18.7860   -3.8490   20.7770 C.3    11  THR11       0.1862
     11  C         17.8000   -3.4890   21.8720 C.2    11  THR11       0.2287
     12  O         17.0650   -2.5190   21.7460 O.2    11  THR11      -0.2866
     13  CB        18.0560   -3.8220   19.4210 C.3    11  THR11       0.1770
     14  OG1       17.0190   -4.8000   19.4390 O.3    11  THR11      -0.2211
     15  CG2       19.0390   -4.1120   18.2730 C.3    11  THR11       0.0375
     16  N         16.2690    0.2550   22.1830 N.3    15  HIS15      -0.1241
     17  CA        14.8220    0.3780   22.0950 C.3    15  HIS15       0.1621
     18  C         14.2410    1.1720   23.2510 C.2    15  HIS15       0.2264
     19  O         13.3820    2.0340   23.0590 O.2    15  HIS15      -0.2867
     20  CB        14.1730   -0.9980   22.0360 C.3    15  HIS15       0.0745
     21  CG        12.7180   -0.9360   21.7580 C.ar   15  HIS15       0.0817
     22  ND1       11.7940   -0.5600   22.7050 N.ar   15  HIS15      -0.2268
     23  CD2       12.0440   -1.0650   20.5970 C.ar   15  HIS15       0.1154
     24  CE1       10.6100   -0.4490   22.1420 C.ar   15  HIS15       0.1986
     25  NE2       10.7370   -0.7500   20.8620 N.ar   15  HIS15      -0.2212
     26  N         15.0600    4.7200   22.6670 N.3    18  LEU18      -0.1231
     27  CA        14.2510    5.2830   21.5920 C.3    18  LEU18       0.1693
     28  C         12.8190    5.4840   22.0630 C.2    18  LEU18       0.2591
     29  O         12.2120    6.5100   21.7800 O.2    18  LEU18      -0.2718
     30  CB        14.2870    4.3590   20.3650 C.3    18  LEU18       0.0284
     31  CG        13.7770    4.9920   19.0690 C.3    18  LEU18       0.0019
     32  CD1       14.1450    4.1110   17.8860 C.3    18  LEU18       0.0001
     33  CD2       12.2970    5.1760   19.1360 C.3    18  LEU18       0.0001
     34  N         12.2570    4.5170   22.7780 N.am   19  GLU19      -0.1979
     35  CA        10.8950    4.7060   23.2470 C.3    19  GLU19       0.1602
     36  C         10.8320    5.9380   24.1460 C.2    19  GLU19       0.2287
     37  O          9.8770    6.7090   24.0810 O.2    19  GLU19      -0.2864
     38  CB        10.3780    3.4820   23.9980 C.3    19  GLU19       0.0415
     39  CG         8.8650    3.4830   24.0320 C.3    19  GLU19       0.1163
     40  CD         8.2540    2.3390   24.8010 C.2    19  GLU19       0.3649
     41  OE1        8.7840    1.2050   24.7440 O.co2  19  GLU19      -0.2457
     42  OE2        7.2120    2.5740   25.4480 O.co2  19  GLU19      -0.2457
     43  N         10.9260    9.1410   21.9990 N.3    22  VAL22      -0.1231
     44  CA         9.6280    9.4320   21.3830 C.3    22  VAL22       0.1692
     45  C          8.6740   10.0350   22.4070 C.2    22  VAL22       0.2591
     46  O          8.0630   11.0720   22.1560 O.2    22  VAL22      -0.2718
     47  CB         9.0050    8.1710   20.7550 C.3    22  VAL22       0.0266
     48  CG1        7.5510    8.4380   20.3260 C.3    22  VAL22       0.0020
     49  CG2        9.8330    7.7790   19.5550 C.3    22  VAL22       0.0020
     50  N          8.5560    9.4170   23.5750 N.am   23  LYS23      -0.1980
     51  CA         7.6580    9.9790   24.5830 C.3    23  LYS23       0.1596
     52  C          7.9880   11.4310   24.9130 C.2    23  LYS23       0.2287
     53  O          7.0800   12.2420   25.1420 O.2    23  LYS23      -0.2864
     54  CB         7.6970    9.1650   25.8710 C.3    23  LYS23       0.0298
     55  CG         6.8680    7.9090   25.8040 C.3    23  LYS23       0.0038
     56  CD         6.2760    7.5840   27.1690 C.3    23  LYS23       0.0206
     57  CE         5.4650    6.3070   27.0980 C.3    23  LYS23       0.1093
     58  NZ         4.4510    6.2160   28.1900 N.3    23  LYS23      -0.1314
     59  N          6.4510   13.6830   13.9270 N.3    37  PHE37      -0.1241
     60  CA         6.7300   12.2620   14.1540 C.3    37  PHE37       0.1605
     61  C          6.5380   11.5330   12.8130 C.2    37  PHE37       0.2264
     62  O          7.3650   10.7110   12.4070 O.2    37  PHE37      -0.2867
     63  CB         5.7660   11.7050   15.2080 C.3    37  PHE37       0.0534
     64  CG         5.9240   10.2340   15.4660 C.ar   37  PHE37      -0.0203
     65  CD1        7.0940    9.7410   16.0220 C.ar   37  PHE37      -0.0042
     66  CD2        4.8910    9.3560   15.1860 C.ar   37  PHE37      -0.0042
     67  CE1        7.2350    8.3860   16.3030 C.ar   37  PHE37      -0.0003
     68  CE2        5.0100    8.0000   15.4610 C.ar   37  PHE37      -0.0003
     69  CZ         6.1980    7.5160   16.0270 C.ar   37  PHE37      -0.0000
     70  N          9.1990    9.1860   10.4270 N.3    41  GLN41      -0.1245
     71  CA         8.8730    7.8730    9.8530 C.3    41  GLN41       0.1566
     72  C          9.0630    7.9140    8.3480 C.2    41  GLN41       0.2260
     73  O          9.6060    6.9890    7.7320 O.2    41  GLN41      -0.2867
     74  CB         7.4270    7.5260   10.1730 C.3    41  GLN41       0.0367
     75  CG         7.1550    7.3810   11.6540 C.3    41  GLN41       0.0905
     76  CD         7.0580    5.9440   12.1040 C.2    41  GLN41       0.2608
     77  OE1        8.0100    5.1620   11.9650 O.2    41  GLN41      -0.2717
     78  NE2        5.8960    5.5740   12.6410 N.am   41  GLN41      -0.0878
     79  N         12.6750    7.7750    7.4690 N.3    44  PHE44      -0.1241
     80  CA        13.2360    6.4370    7.7030 C.3    44  PHE44       0.1605
     81  C         12.8580    5.5570    6.5020 C.2    44  PHE44       0.2264
     82  O         13.6580    4.7400    6.0500 O.2    44  PHE44      -0.2867
     83  CB        12.6820    5.8840    9.0170 C.3    44  PHE44       0.0534
     84  CG        13.4180    4.6660    9.5490 C.ar   44  PHE44      -0.0203
     85  CD1       14.7920    4.6990    9.7770 C.ar   44  PHE44      -0.0042
     86  CD2       12.7040    3.5260    9.8950 C.ar   44  PHE44      -0.0042
     87  CE1       15.4570    3.5980   10.3600 C.ar   44  PHE44      -0.0003
     88  CE2       13.3550    2.4310   10.4740 C.ar   44  PHE44      -0.0003
     89  CZ        14.7320    2.4760   10.7050 C.ar   44  PHE44      -0.0000
     90  N         15.3210   -5.7870   10.0070 N.3   106  PHE106     -0.1227
     91  CA        14.8460   -6.2710   11.2890 C.3   106  PHE106      0.1736
     92  C         14.2560   -5.0960   12.0760 C.2   106  PHE106      0.2595
     93  O         13.1760   -5.1960   12.6520 O.2   106  PHE106     -0.2718
     94  CB        15.9730   -6.9740   12.0470 C.3   106  PHE106      0.0547
     95  CG        15.7340   -7.0830   13.5260 C.ar  106  PHE106     -0.0202
     96  CD1       14.9690   -8.1130   14.0440 C.ar  106  PHE106     -0.0042
     97  CD2       16.2810   -6.1440   14.4010 C.ar  106  PHE106     -0.0042
     98  CE1       14.7480   -8.2130   15.4050 C.ar  106  PHE106     -0.0003
     99  CE2       16.0600   -6.2440   15.7620 C.ar  106  PHE106     -0.0003
    100  CZ        15.2940   -7.2780   16.2640 C.ar  106  PHE106     -0.0000
    101  N         15.0130   -3.9760   12.1050 N.am  107  VAL107     -0.1980
    102  CA        14.5350   -2.8290   12.8750 C.3   107  VAL107      0.1595
    103  C         13.2930   -2.1850   12.2290 C.2   107  VAL107      0.2287
    104  O         12.3430   -1.8460   12.9170 O.2   107  VAL107     -0.2864
    105  CB        15.6800   -1.7840   13.0640 C.3   107  VAL107      0.0276
    106  CG1       15.1450   -0.5420   13.8180 C.3   107  VAL107      0.0022
    107  CG2       16.8320   -2.4310   13.8720 C.3   107  VAL107      0.0022
    108  N         10.3810   -4.4670   12.8440 N.3   110  GLY110     -0.1210
    109  CA        10.0330   -4.4920   14.2510 C.3   110  GLY110      0.1956
    110  C          9.3610   -3.2100   14.7010 C.2   110  GLY110      0.2612
    111  O          8.5530   -3.2150   15.6260 O.2   110  GLY110     -0.2717
    112  N          9.6970   -2.1050   14.0490 N.am  111  SER111     -0.1952
    113  CA         9.1110   -0.8240   14.4190 C.3   111  SER111      0.1924
    114  C          7.5930   -0.8010   14.1980 C.2   111  SER111      0.2314
    115  O          6.9030    0.1010   14.6930 O.2   111  SER111     -0.2863
    116  CB         9.7770    0.3010   13.6290 C.3   111  SER111      0.2116
    117  OG         9.3320    0.2960   12.2870 O.3   111  SER111     -0.2180
    118  N          5.5920   -3.1370   15.2820 N.3   113  LEU113     -0.1231
    119  CA         4.9570   -3.7470   16.4320 C.3   113  LEU113      0.1693
    120  C          4.4030   -2.6960   17.3890 C.2   113  LEU113      0.2592
    121  O          5.0520   -1.6770   17.6900 O.2   113  LEU113     -0.2718
    122  CB         5.9530   -4.6600   17.1500 C.3   113  LEU113      0.0284
    123  CG         6.3670   -5.8700   16.3110 C.3   113  LEU113      0.0019
    124  CD1        7.5570   -6.5610   16.9570 C.3   113  LEU113      0.0001
    125  CD2        5.1980   -6.8200   16.1760 C.3   113  LEU113      0.0001
    126  N          3.1900   -2.9510   17.8570 N.am  114  GLY114     -0.1957
    127  CA         2.5370   -2.0460   18.7830 C.3   114  GLY114      0.1869
    128  C          1.9680   -0.8240   18.1010 C.2   114  GLY114      0.2309
    129  O          1.3920    0.0430   18.7590 O.2   114  GLY114     -0.2863
    130  N         -1.2260    0.7000   19.0210 N.3   117  PHE117     -0.1227
    131  CA        -1.2960    1.5660   20.1930 C.3   117  PHE117      0.1736
    132  C         -1.1360    3.0200   19.7660 C.2   117  PHE117      0.2595
    133  O         -1.7960    3.9120   20.3010 O.2   117  PHE117     -0.2718
    134  CB        -0.2030    1.1850   21.1960 C.3   117  PHE117      0.0547
    135  CG        -0.4280   -0.1530   21.8620 C.ar  117  PHE117     -0.0202
    136  CD1        0.5980   -0.7710   22.5590 C.ar  117  PHE117     -0.0042
    137  CD2       -1.6640   -0.7930   21.7840 C.ar  117  PHE117     -0.0042
    138  CE1        0.4060   -2.0150   23.1750 C.ar  117  PHE117     -0.0003
    139  CE2       -1.8700   -2.0380   22.3960 C.ar  117  PHE117     -0.0003
    140  CZ        -0.8280   -2.6480   23.0930 C.ar  117  PHE117     -0.0000
    141  N         -0.2350    3.2470   18.8140 N.am  118  LEU118     -0.1980
    142  CA         0.0030    4.5770   18.2770 C.3   118  LEU118      0.1596
    143  C         -1.2320    4.9590   17.4780 C.2   118  LEU118      0.2287
    144  O         -1.6700    6.1130   17.4990 O.2   118  LEU118     -0.2864
    145  CB         1.2250    4.5900   17.3570 C.3   118  LEU118      0.0297
    146  CG         2.6080    4.3070   17.9490 C.3   118  LEU118      0.0022
    147  CD1        3.6530    4.3830   16.8360 C.3   118  LEU118      0.0001
    148  CD2        2.9220    5.3090   19.0450 C.3   118  LEU118      0.0001
    149  N         -3.8350    6.0500   19.8810 N.3   121  LYS121     -0.1245
    150  CA        -3.5520    7.3650   20.4420 C.3   121  LYS121      0.1561
    151  C         -3.7850    8.4650   19.4000 C.2   121  LYS121      0.2260
    152  O         -4.1360    9.5900   19.7510 O.2   121  LYS121     -0.2867
    153  CB        -2.1250    7.4310   20.9860 C.3   121  LYS121      0.0271
    154  CG        -1.9140    6.5870   22.2530 C.3   121  LYS121      0.0035
    155  CD        -0.4940    6.7290   22.7760 C.3   121  LYS121      0.0206
    156  CE        -0.2250    5.7770   23.9430 C.3   121  LYS121      0.1093
    157  NZ         1.2290    5.5880   24.1710 N.3   121  LYS121     -0.1314
    158  N         -0.5940   -7.4420   12.2750 N.3   143  ARG143     -0.1245
    159  CA         0.7760   -7.1510   12.6950 C.3   143  ARG143      0.1563
    160  C          1.5370   -8.3930   13.1610 C.2   143  ARG143      0.2260
    161  O          2.6780   -8.6330   12.7590 O.2   143  ARG143     -0.2867
    162  CB         0.7780   -6.1440   13.8480 C.3   143  ARG143      0.0307
    163  CG        -0.0410   -4.8900   13.6340 C.3   143  ARG143      0.0489
    164  CD         0.0020   -4.0510   14.9050 C.3   143  ARG143      0.2205
    165  NE        -0.4760   -4.8230   16.0470 N.pl3 143  ARG143     -0.0865
    166  CZ        -0.4690   -4.3960   17.3060 C.cat 143  ARG143      0.5346
    167  NH1       -0.0030   -3.1890   17.6020 N.pl3 143  ARG143      0.1354
    168  NH2       -0.9390   -5.1790   18.2680 N.pl3 143  ARG143      0.1354
    169  N          5.1070  -10.1730   11.4620 N.3   147  TRP147     -0.1241
    170  CA         6.3940  -10.2390   12.1410 C.3   147  TRP147      0.1605
    171  C          6.9270  -11.6770   12.2070 C.2   147  TRP147      0.2264
    172  O          8.1050  -11.9300   11.9480 O.2   147  TRP147     -0.2867
    173  CB         6.2690   -9.6500   13.5530 C.3   147  TRP147      0.0550
    174  CG         7.4980   -9.8050   14.3910 C.ar  147  TRP147      0.0003
    175  CD1        7.6380  -10.5870   15.5010 C.ar  147  TRP147      0.0946
    176  CD2        8.7650   -9.1790   14.1780 C.ar  147  TRP147      0.0152
    177  NE1        8.9170  -10.4890   15.9900 N.ar  147  TRP147     -0.2442
    178  CE2        9.6290   -9.6290   15.1970 C.ar  147  TRP147      0.0810
    179  CE3        9.2560   -8.2820   13.2250 C.ar  147  TRP147      0.0012
    180  CZ2       10.9550   -9.2120   15.2910 C.ar  147  TRP147      0.0191
    181  CZ3       10.5760   -7.8670   13.3190 C.ar  147  TRP147      0.0001
    182  CH2       11.4090   -8.3330   14.3440 C.ar  147  TRP147      0.0015
    183  N         20.5270    1.3310   12.6420 N.3   174  ALA174     -0.1231
    184  CA        19.1550    1.7600   12.3300 C.3   174  ALA174      0.1694
    185  C         18.4530    2.4110   13.5230 C.2   174  ALA174      0.2592
    186  O         17.7160    3.3750   13.3550 O.2   174  ALA174     -0.2718
    187  CB        18.3310    0.5850   11.7750 C.3   174  ALA174      0.0304
    188  N         18.6460    1.8770   14.7300 N.am  175  PHE175     -0.1976
    189  CA        18.0410    2.5090   15.9000 C.3   175  PHE175      0.1639
    190  C         18.6270    3.9200   16.0790 C.2   175  PHE175      0.2290
    191  O         17.8810    4.8760   16.3350 O.2   175  PHE175     -0.2864
    192  CB        18.3240    1.6940   17.1710 C.3   175  PHE175      0.0560
    193  CG        17.2330    0.7360   17.5200 C.ar  175  PHE175     -0.0200
    194  CD1       17.3300   -0.6090   17.1660 C.ar  175  PHE175     -0.0042
    195  CD2       16.0830    1.1770   18.1530 C.ar  175  PHE175     -0.0042
    196  CE1       16.2970   -1.4880   17.4280 C.ar  175  PHE175     -0.0003
    197  CE2       15.0240    0.2980   18.4310 C.ar  175  PHE175     -0.0003
    198  CZ        15.1310   -1.0500   18.0620 C.ar  175  PHE175     -0.0000
    199  N         17.0910    6.3540   13.4800 N.3   178  PHE178     -0.1241
    200  CA        15.7370    6.8270   13.7510 C.3   178  PHE178      0.1605
    201  C         15.8060    7.9420   14.7940 C.2   178  PHE178      0.2264
    202  O         15.1020    8.9440   14.7020 O.2   178  PHE178     -0.2867
    203  CB        14.8030    5.7130   14.2400 C.3   178  PHE178      0.0534
    204  CG        13.3370    6.0750   14.1160 C.ar  178  PHE178     -0.0203
    205  CD1       12.6670    5.8610   12.9270 C.ar  178  PHE178     -0.0042
    206  CD2       12.6600    6.7020   15.1560 C.ar  178  PHE178     -0.0042
    207  CE1       11.3270    6.2710   12.7620 C.ar  178  PHE178     -0.0003
    208  CE2       11.3160    7.1220   15.0070 C.ar  178  PHE178     -0.0003
    209  CZ        10.6610    6.9000   13.8010 C.ar  178  PHE178     -0.0000
@<TRIPOS>BOND
     1    82    81    2
     2    81    80    1
     3    79    80    1
     4    80    83    1
     5    73    72    2
     6    72    71    1
     7    83    84    1
     8    84    85   ar
     9    84    86   ar
    10    85    87   ar
    11    71    74    1
    12    71    70    1
    13    86    88   ar
    14    90    91    1
    15    74    75    1
    16    87    89   ar
    17    88    89   ar
    18    91    94    1
    19    91    92    1
    20   169   170    1
    21    75    76    1
    22   187   184    1
    23   172   171    2
    24    77    76    2
    25    94    95    1
    26    92   101   am
    27    92    93    2
    28    76    78   am
    29   101   102    1
    30   170   171    1
    31   170   173    1
    32   103   102    1
    33   103   104    2
    34   158   159    1
    35   117   116    1
    36   184   183    1
    37   184   185    1
    38    62    61    2
    39   159   160    1
    40   159   162    1
    41   161   160    2
    42   207   205   ar
    43   207   209   ar
    44    61    60    1
    45   108   109    1
    46   102   105    1
    47   205   204   ar
    48   105   106    1
    49   105   107    1
    50   179   181   ar
    51   179   176   ar
    52   181   182   ar
    53   186   185    2
    54   199   200    1
    55   185   188   am
    56    95    96   ar
    57    95    97   ar
    58   173   174    1
    59   116   113    1
    60   163   162    1
    61   163   164    1
    62   200   203    1
    63   200   201    1
    64   209   208   ar
    65    59    60    1
    66    96    98   ar
    67   112   113    1
    68   112   110   am
    69   204   203    1
    70   204   206   ar
    71    60    63    1
    72   176   174   ar
    73   176   178   ar
    74   114   113    1
    75   114   115    2
    76   109   110    1
    77   182   180   ar
    78   174   175   ar
    79    97    99   ar
    80   110   111    2
    81   202   201    2
    82   188   189    1
    83   164   165    1
    84   208   206   ar
    85    66    68   ar
    86    66    64   ar
    87   178   180   ar
    88   178   177   ar
    89    63    64    1
    90   118   119    1
    91    98   100   ar
    92    68    69   ar
    93    64    65   ar
    94   175   177   ar
    95    99   100   ar
    96   189   190    1
    97   189   192    1
    98    65    67   ar
    99    69    67   ar
   100   165   166    2
   101   190   191    2
   102   125   123    1
   103   123   124    1
   104   123   122    1
   105   119   122    1
   106   119   120    1
   107   147   146    1
   108   194   196   ar
   109   194   193   ar
   110   192   193    1
   111   166   167    1
   112   166   168    1
   113   145   146    1
   114   145   142    1
   115   120   121    2
   116   120   126   am
   117   196   198   ar
   118   143   144    2
   119   143   142    1
   120   193   195   ar
   121   126   127    1
   122    32    31    1
   123   146   148    1
   124   198   197   ar
   125   128   129    2
   126   128   127    1
   127   195   197   ar
   128    15    13    1
   129   142   141    1
   130   141   132   am
   131     7     6    2
   132   130   131    1
   133    31    33    1
   134    31    30    1
   135   151   152    2
   136   151   150    1
   137    13    14    1
   138    13    10    1
   139    49    47    1
   140     1     2    1
   141   132   131    1
   142   132   133    2
   143     6     8   am
   144     6     5    1
   145   149   150    1
   146   131   134    1
   147    48    47    1
   148    30    27    1
   149   150   153    1
   150     2     5    1
   151     2     3    1
   152    23    25   ar
   153    23    21   ar
   154    47    44    1
   155    10     9    1
   156    10    11    1
   157    25    24   ar
   158   153   154    1
   159   134   135    1
   160    44    43    1
   161    44    45    1
   162    27    28    1
   163    27    26    1
   164    12    11    2
   165    21    20    1
   166    21    22   ar
   167    29    28    2
   168   137   135   ar
   169   137   139   ar
   170     3     4    2
   171   135   136   ar
   172    20    17    1
   173    28    34   am
   174    17    16    1
   175    17    18    1
   176    24    22   ar
   177    46    45    2
   178   154   155    1
   179   139   140   ar
   180    45    50   am
   181   136   138   ar
   182   155   156    1
   183    34    35    1
   184    19    18    2
   185   140   138   ar
   186    35    38    1
   187    35    36    1
   188    50    51    1
   189   156   157    1
   190    38    39    1
   191    39    40    1
   192    37    36    2
   193    51    52    1
   194    51    54    1
   195    41    40   ar
   196    40    42   ar
   197    52    53    2
   198    55    54    1
   199    55    56    1
   200    57    56    1
   201    57    58    1
