@<TRIPOS>MOLECULE
tmp/1skaA02.pdb
 82 82 0 0 0
SMALL
GASTEIGER

@<TRIPOS>ATOM
      1  N         29.8470    9.5720  -26.4440 N.3   339  PHE339     -0.1227
      2  CA        30.7350    9.2360  -27.5740 C.3   339  PHE339      0.1736
      3  C         30.4090   10.0040  -28.8260 C.2   339  PHE339      0.2595
      4  O         31.3430   10.4940  -29.5660 O.2   339  PHE339     -0.2718
      5  CB        30.7830    7.7020  -27.7500 C.3   339  PHE339      0.0547
      6  CG        31.7670    7.0450  -26.7800 C.ar  339  PHE339     -0.0202
      7  CD1       33.1680    6.9630  -27.0970 C.ar  339  PHE339     -0.0042
      8  CD2       31.3410    6.5210  -25.5540 C.ar  339  PHE339     -0.0042
      9  CE1       34.0920    6.3450  -26.2710 C.ar  339  PHE339     -0.0003
     10  CE2       32.3090    5.9640  -24.6320 C.ar  339  PHE339     -0.0003
     11  CZ        33.6990    5.8850  -24.9990 C.ar  339  PHE339     -0.0000
     12  N         29.1260   10.2020  -29.0670 N.am  340  ALA340     -0.1966
     13  CA        28.6940   10.8940  -30.2480 C.3   340  ALA340      0.1728
     14  C         29.1820   12.3740  -30.1330 C.2   340  ALA340      0.2616
     15  O         29.5120   13.0170  -31.1370 O.2   340  ALA340     -0.2715
     16  CB        27.1400   10.7970  -30.4080 C.3   340  ALA340      0.0334
     17  N         29.2400   12.9220  -28.9280 N.am  341  LEU341     -0.1963
     18  CA        29.6790   14.3420  -28.6770 C.3   341  LEU341      0.1728
     19  C         31.1920   14.4620  -28.7530 C.2   341  LEU341      0.2616
     20  O         31.7360   15.5770  -28.6050 O.2   341  LEU341     -0.2715
     21  CB        29.1710   14.7840  -27.3010 C.3   341  LEU341      0.0311
     22  CG        27.6900   15.1630  -27.2210 C.3   341  LEU341      0.0022
     23  CD1       27.3000   15.1610  -25.7120 C.3   341  LEU341      0.0001
     24  CD2       27.4820   16.5640  -27.9380 C.3   341  LEU341      0.0001
     25  N         31.8430   13.3380  -28.9510 N.am  342  GLY342     -0.1955
     26  CA        33.2810   13.3620  -28.9960 C.3   342  GLY342      0.1869
     27  C         33.9840   13.5290  -27.6810 C.2   342  GLY342      0.2309
     28  O         35.1980   13.6930  -27.6870 O.2   342  GLY342     -0.2863
     29  N         36.9850   11.1360  -27.1120 N.3   345  ASN345     -0.1240
     30  CA        37.8980   10.9970  -28.2470 C.3   345  ASN345      0.1653
     31  C         39.3960   10.9590  -27.8610 C.2   345  ASN345      0.2266
     32  O         40.2140   10.7000  -28.7390 O.2   345  ASN345     -0.2867
     33  CB        37.5480   12.1150  -29.2550 C.3   345  ASN345      0.1155
     34  CG        36.6000   11.6420  -30.3210 C.2   345  ASN345      0.2627
     35  OD1       35.7940   10.7180  -30.0910 O.2   345  ASN345     -0.2716
     36  ND2       36.6760   12.3150  -31.5230 N.am  345  ASN345     -0.0877
     37  N         36.3060   17.8820  -27.6050 N.3   403  HIS403     -0.1226
     38  CA        37.0350   17.5690  -28.8520 C.3   403  HIS403      0.1752
     39  C         36.3360   18.1680  -30.0480 C.2   403  HIS403      0.2596
     40  O         35.1150   18.3860  -30.0400 O.2   403  HIS403     -0.2718
     41  CB        37.2040   16.0230  -28.9790 C.3   403  HIS403      0.0759
     42  CG        38.1250   15.4580  -27.9570 C.ar  403  HIS403      0.0818
     43  ND1       39.4580   15.1690  -28.2260 N.ar  403  HIS403     -0.2268
     44  CD2       37.9240   15.1350  -26.6560 C.ar  403  HIS403      0.1154
     45  CE1       40.0260   14.7350  -27.1170 C.ar  403  HIS403      0.1986
     46  NE2       39.1280   14.7330  -26.1580 N.ar  403  HIS403     -0.2212
     47  N         37.1550   18.3470  -31.1140 N.am  404  GLY404     -0.1957
     48  CA        36.6700   18.8090  -32.4020 C.3   404  GLY404      0.1869
     49  C         36.7570   20.3140  -32.5140 C.2   404  GLY404      0.2309
     50  O         36.4630   20.8910  -33.5770 O.2   404  GLY404     -0.2863
     51  N         32.5560   21.6570  -34.8000 N.3   421  GLY421     -0.1210
     52  CA        33.3830   20.4430  -34.5790 C.3   421  GLY421      0.1956
     53  C         32.5870   19.1480  -34.2750 C.2   421  GLY421      0.2612
     54  O         33.1310   18.0030  -34.3940 O.2   421  GLY421     -0.2717
     55  N         31.2780   19.3110  -34.0330 N.am  422  LEU422     -0.1965
     56  CA        30.3610   18.1300  -33.9500 C.3   422  LEU422      0.1728
     57  C         29.8920   17.6420  -35.3700 C.2   422  LEU422      0.2617
     58  O         28.7430   17.1830  -35.5740 O.2   422  LEU422     -0.2715
     59  CB        29.1770   18.5020  -33.0860 C.3   422  LEU422      0.0311
     60  CG        29.5170   18.7790  -31.5940 C.3   422  LEU422      0.0022
     61  CD1       28.2450   19.0310  -30.8350 C.3   422  LEU422      0.0001
     62  CD2       30.2060   17.4800  -30.9240 C.3   422  LEU422      0.0001
     63  N         30.7930   17.7440  -36.3230 N.am  423  SER423     -0.1936
     64  CA        30.5480   17.3970  -37.7230 C.3   423  SER423      0.2055
     65  C         30.0750   15.9350  -37.8880 C.2   423  SER423      0.2643
     66  O         29.2040   15.6370  -38.6860 O.2   423  SER423     -0.2714
     67  CB        31.8140   17.7650  -38.5320 C.3   423  SER423      0.2130
     68  OG        32.9580   17.0340  -38.0280 O.3   423  SER423     -0.2179
     69  N         30.6230   14.9940  -37.1260 N.am  424  TRP424     -0.1973
     70  CA        30.1900   13.6180  -37.2690 C.3   424  TRP424      0.1640
     71  C         28.6820   13.4920  -36.9390 C.2   424  TRP424      0.2290
     72  O         27.8690   12.9960  -37.7120 O.2   424  TRP424     -0.2864
     73  CB        31.0250   12.6710  -36.3960 C.3   424  TRP424      0.0576
     74  CG        30.6570   11.2740  -36.6520 C.ar  424  TRP424      0.0006
     75  CD1       31.0810   10.5010  -37.7240 C.ar  424  TRP424      0.0946
     76  CD2       29.7670   10.4090  -35.8890 C.ar  424  TRP424      0.0152
     77  NE1       30.5720    9.2350  -37.6400 N.ar  424  TRP424     -0.2442
     78  CE2       29.7560    9.1510  -36.5280 C.ar  424  TRP424      0.0810
     79  CE3       29.0750   10.5500  -34.6760 C.ar  424  TRP424      0.0012
     80  CZ2       29.0850    8.0380  -36.0100 C.ar  424  TRP424      0.0191
     81  CZ3       28.3270    9.4660  -34.2040 C.ar  424  TRP424      0.0001
     82  CH2       28.3600    8.2080  -34.8950 C.ar  424  TRP424      0.0015
@<TRIPOS>BOND
     1    66    65    2
     2    67    68    1
     3    67    64    1
     4    65    64    1
     5    65    69   am
     6    75    77   ar
     7    75    74   ar
     8    64    63    1
     9    72    71    2
    10    77    78   ar
    11    70    69    1
    12    70    71    1
    13    70    73    1
    14    74    73    1
    15    74    76   ar
    16    78    80   ar
    17    78    76   ar
    18    63    57   am
    19    80    82   ar
    20    76    79   ar
    21    58    57    2
    22    57    56    1
    23    82    81   ar
    24    51    52    1
    25    79    81   ar
    26    52    53    1
    27    54    53    2
    28    53    55   am
    29    55    56    1
    30    56    59    1
    31    50    49    2
    32    59    60    1
    33    49    48    1
    34    48    47    1
    35    60    62    1
    36    60    61    1
    37    36    34   am
    38    15    14    2
    39    47    39   am
    40    16    13    1
    41    34    35    2
    42    34    33    1
    43    13    14    1
    44    13    12    1
    45    14    17   am
    46    39    40    2
    47    39    38    1
    48     4     3    2
    49    33    30    1
    50    12     3   am
    51    26    25    1
    52    26    27    1
    53    41    38    1
    54    41    42    1
    55    25    19   am
    56    17    18    1
    57    38    37    1
    58     3     2    1
    59    19    18    1
    60    19    20    2
    61    32    31    2
    62    18    21    1
    63    30    31    1
    64    30    29    1
    65    43    42   ar
    66    43    45   ar
    67    42    44   ar
    68    24    22    1
    69     5     2    1
    70     5     6    1
    71    28    27    2
    72     2     1    1
    73    21    22    1
    74    22    23    1
    75    45    46   ar
    76     7     6   ar
    77     7     9   ar
    78     6     8   ar
    79    44    46   ar
    80     9    11   ar
    81     8    10   ar
    82    11    10   ar
