@<TRIPOS>MOLECULE
tmp/1skaA00.pdb
 85 83 0 0 0
SMALL
GASTEIGER

@<TRIPOS>ATOM
      1  N         10.7200    7.2490  -32.2340 N.3   176  ASN176     -0.1240
      2  CA        12.0210    7.9030  -32.3700 C.3   176  ASN176      0.1653
      3  C         12.2250    8.6090  -31.0140 C.2   176  ASN176      0.2266
      4  O         11.6470    9.7040  -30.7830 O.2   176  ASN176     -0.2867
      5  CB        12.0240    8.9260  -33.5270 C.3   176  ASN176      0.1155
      6  CG        11.9760    8.2380  -34.9160 C.2   176  ASN176      0.2627
      7  OD1       12.0180    6.9910  -35.0040 O.2   176  ASN176     -0.2716
      8  ND2       11.9270    9.0420  -35.9390 N.am  176  ASN176     -0.0877
      9  N         15.2420    2.1290  -32.4650 N.3   183  VAL183     -0.1245
     10  CA        14.7770    2.0800  -33.8530 C.3   183  VAL183      0.1561
     11  C         15.8740    1.7030  -34.8240 C.2   183  VAL183      0.2260
     12  O         15.5800    1.5160  -35.9890 O.2   183  VAL183     -0.2867
     13  CB        14.0580    3.3730  -34.3680 C.3   183  VAL183      0.0252
     14  CG1       12.9380    3.8000  -33.4430 C.3   183  VAL183      0.0019
     15  CG2       15.0420    4.5530  -34.5590 C.3   183  VAL183      0.0019
     16  N         18.3250   13.5090  -38.7400 N.3   304  HIS304     -0.1226
     17  CA        17.5250   12.4870  -39.3950 C.3   304  HIS304      0.1752
     18  C         17.8580   11.1080  -38.8270 C.2   304  HIS304      0.2596
     19  O         17.8550   10.1170  -39.5630 O.2   304  HIS304     -0.2718
     20  CB        17.8070   12.4870  -40.9330 C.3   304  HIS304      0.0759
     21  CG        19.2390   12.2030  -41.2740 C.ar  304  HIS304      0.0818
     22  ND1       20.1760   13.2070  -41.4310 N.ar  304  HIS304     -0.2268
     23  CD2       19.9190   11.0340  -41.4290 C.ar  304  HIS304      0.1154
     24  CE1       21.3580   12.6720  -41.7160 C.ar  304  HIS304      0.1986
     25  NE2       21.2340   11.3530  -41.6710 N.ar  304  HIS304     -0.2212
     26  N         18.1010   11.0610  -37.5170 N.am  305  THR305     -0.1953
     27  CA        18.3470    9.7640  -36.8760 C.3   305  THR305      0.1897
     28  C         17.2090    9.3870  -35.9360 C.2   305  THR305      0.2313
     29  O         16.2650    8.7600  -36.3850 O.2   305  THR305     -0.2863
     30  CB        19.7180    9.6820  -36.2100 C.3   305  THR305      0.1794
     31  OG1       19.8230   10.6580  -35.1360 O.3   305  THR305     -0.2208
     32  CG2       20.8450   10.1480  -37.1430 C.3   305  THR305      0.0378
     33  N         15.6550   11.6510  -33.6700 N.3   307  THR307     -0.1203
     34  CA        14.6490   12.6530  -33.3170 C.3   307  THR307      0.1994
     35  C         13.2480   12.3130  -33.8600 C.2   307  THR307      0.2618
     36  O         13.0530   11.5220  -34.7870 O.2   307  THR307     -0.2717
     37  CB        15.0070   14.0780  -33.6810 C.3   307  THR307      0.1784
     38  OG1       15.2240   14.1410  -35.1450 O.3   307  THR307     -0.2211
     39  CG2       16.3890   14.5210  -33.0050 C.3   307  THR307      0.0376
     40  N         12.2460   12.8900  -33.2150 N.am  308  ASN308     -0.1960
     41  CA        10.8980   12.9300  -33.8140 C.3   308  ASN308      0.1819
     42  C         10.5790   14.3240  -34.4390 C.2   308  ASN308      0.2622
     43  O         10.5860   15.3320  -33.7120 O.2   308  ASN308     -0.2715
     44  CB         9.9080   12.5420  -32.7380 C.3   308  ASN308      0.1195
     45  CG         8.4820   12.4830  -33.2850 C.2   308  ASN308      0.2630
     46  OD1        8.0140   13.4880  -33.8350 O.2   308  ASN308     -0.2716
     47  ND2        7.8450   11.3320  -33.1400 N.am  308  ASN308     -0.0877
     48  N         10.3620   14.4250  -35.7720 N.am  309  SER309     -0.1936
     49  CA        10.3030   15.7420  -36.4340 C.3   309  SER309      0.2055
     50  C          9.1100   16.5520  -35.9490 C.2   309  SER309      0.2643
     51  O          9.1330   17.7900  -35.8130 O.2   309  SER309     -0.2714
     52  CB        10.3040   15.6130  -37.9810 C.3   309  SER309      0.2130
     53  OG         9.2070   14.7940  -38.3520 O.3   309  SER309     -0.2179
     54  N          8.0850   15.8450  -35.5550 N.am  310  THR310     -0.1950
     55  CA         6.9680   16.5390  -34.9710 C.3   310  THR310      0.1897
     56  C          7.2870   17.1590  -33.6160 C.2   310  THR310      0.2313
     57  O          7.0620   18.3570  -33.3810 O.2   310  THR310     -0.2863
     58  CB         5.7710   15.6040  -34.8480 C.3   310  THR310      0.1794
     59  OG1        5.3820   15.3090  -36.2000 O.3   310  THR310     -0.2208
     60  CG2        4.5620   16.3930  -34.2880 C.3   310  THR310      0.0378
     61  N         24.3640    6.2910  -39.4580 N.3   431  TRP431     -0.1241
     62  CA        22.9880    5.8510  -39.1750 C.3   431  TRP431      0.1605
     63  C         22.3750    4.9880  -40.3110 C.2   431  TRP431      0.2264
     64  O         21.5560    4.1030  -40.0760 O.2   431  TRP431     -0.2867
     65  CB        22.0510    7.1040  -38.9570 C.3   431  TRP431      0.0550
     66  CG        20.6310    6.8070  -38.5190 C.ar  431  TRP431      0.0003
     67  CD1       19.4780    6.8190  -39.2830 C.ar  431  TRP431      0.0946
     68  CD2       20.2250    6.4080  -37.2020 C.ar  431  TRP431      0.0152
     69  NE1       18.3690    6.4900  -38.5250 N.ar  431  TRP431     -0.2442
     70  CE2       18.8100    6.2290  -37.2340 C.ar  431  TRP431      0.0810
     71  CE3       20.9130    6.2540  -35.9740 C.ar  431  TRP431      0.0012
     72  CZ2       18.0820    5.9070  -36.0880 C.ar  431  TRP431      0.0191
     73  CZ3       20.2070    5.8750  -34.8530 C.ar  431  TRP431      0.0001
     74  CH2       18.8130    5.7410  -34.8930 C.ar  431  TRP431      0.0015
     75  N         19.9910    0.1140  -41.2610 N.3   435  PHE435     -0.1241
     76  CA        18.9740   -0.5250  -42.1070 C.3   435  PHE435      0.1605
     77  C         19.6850   -1.2540  -43.2580 C.2   435  PHE435      0.2264
     78  O         18.9640   -1.5910  -44.1930 O.2   435  PHE435     -0.2867
     79  CB        17.9460    0.5210  -42.5850 C.3   435  PHE435      0.0534
     80  CG        17.5170    1.4660  -41.4810 C.ar  435  PHE435     -0.0203
     81  CD1       16.7660    0.9790  -40.4050 C.ar  435  PHE435     -0.0042
     82  CD2       17.9270    2.7760  -41.4980 C.ar  435  PHE435     -0.0042
     83  CE1       16.3900    1.8500  -39.3320 C.ar  435  PHE435     -0.0003
     84  CE2       17.5540    3.6810  -40.4610 C.ar  435  PHE435     -0.0003
     85  CZ        16.8330    3.2280  -39.3860 C.ar  435  PHE435     -0.0000
@<TRIPOS>BOND
     1    78    77    2
     2    77    76    1
     3    79    76    1
     4    79    80    1
     5    76    75    1
     6    24    25   ar
     7    24    22   ar
     8    25    23   ar
     9    82    80   ar
    10    82    84   ar
    11    80    81   ar
    12    22    21   ar
    13    23    21   ar
    14    21    20    1
    15    20    17    1
    16    84    85   ar
    17    81    83   ar
    18    63    64    2
    19    63    62    1
    20    19    18    2
    21    61    62    1
    22    17    18    1
    23    17    16    1
    24    85    83   ar
    25    67    69   ar
    26    67    66   ar
    27    62    65    1
    28    65    66    1
    29    18    26   am
    30    69    70   ar
    31    66    68   ar
    32    53    52    1
    33    52    49    1
    34    26    27    1
    35    70    68   ar
    36    70    72   ar
    37    68    71   ar
    38    32    30    1
    39    27    30    1
    40    27    28    1
    41    49    50    1
    42    49    48    1
    43    29    28    2
    44    30    31    1
    45    59    58    1
    46    72    74   ar
    47    12    11    2
    48    71    73   ar
    49    50    51    2
    50    50    54   am
    51     8     6   am
    52    48    42   am
    53    54    55    1
    54    38    37    1
    55     7     6    2
    56    55    58    1
    57    55    56    1
    58     6     5    1
    59    74    73   ar
    60    58    60    1
    61    11    10    1
    62    36    35    2
    63    15    13    1
    64    42    41    1
    65    42    43    2
    66    13    10    1
    67    13    14    1
    68    35    34    1
    69    35    40   am
    70    10     9    1
    71    46    45    2
    72    41    40    1
    73    41    44    1
    74    37    34    1
    75    37    39    1
    76    33    34    1
    77    56    57    2
    78     5     2    1
    79    45    47   am
    80    45    44    1
    81     2     1    1
    82     2     3    1
    83     3     4    2
