@<TRIPOS>MOLECULE
tmp/1skgA00.pdb
 139 137 0 0 0
SMALL
GASTEIGER

@<TRIPOS>ATOM
      1  N         10.5970   16.5630    3.8880 N.3     2  LEU2       -0.1231
      2  CA         9.3270   17.2270    4.0470 C.3     2  LEU2        0.1693
      3  C          8.3020   16.3160    4.6750 C.2     2  LEU2        0.2591
      4  O          7.4900   16.7620    5.5020 O.2     2  LEU2       -0.2718
      5  CB         8.8640   17.6710    2.6580 C.3     2  LEU2        0.0284
      6  CG         7.5950   18.4890    2.6060 C.3     2  LEU2        0.0019
      7  CD1        7.6360   19.6920    3.5220 C.3     2  LEU2        0.0001
      8  CD2        7.3530   18.9860    1.1710 C.3     2  LEU2        0.0001
      9  N          8.2950   15.0340    4.3380 N.am    3  LEU3       -0.1980
     10  CA         7.3190   14.1060    4.9350 C.3     3  LEU3        0.1596
     11  C          7.5720   13.9350    6.4130 C.2     3  LEU3        0.2287
     12  O          6.6240   13.8970    7.1920 O.2     3  LEU3       -0.2864
     13  CB         7.3730   12.7620    4.2460 C.3     3  LEU3        0.0297
     14  CG         6.5320   12.5880    2.9880 C.3     3  LEU3        0.0022
     15  CD1        6.7340   11.1400    2.5940 C.3     3  LEU3        0.0001
     16  CD2        5.0660   12.8780    3.2340 C.3     3  LEU3        0.0001
     17  N          9.0140   16.1520    8.3430 N.3     5  PHE5       -0.1227
     18  CA         8.6210   17.4190    8.9660 C.3     5  PHE5        0.1736
     19  C          7.1120   17.3940    9.1960 C.2     5  PHE5        0.2596
     20  O          6.6310   17.7930   10.2380 O.2     5  PHE5       -0.2718
     21  CB         9.0180   18.5670    8.0570 C.3     5  PHE5        0.0547
     22  CG         8.7490   19.9610    8.6000 C.ar    5  PHE5       -0.0202
     23  CD1        8.8720   20.2930    9.9490 C.ar    5  PHE5       -0.0042
     24  CD2        8.3920   20.9390    7.7050 C.ar    5  PHE5       -0.0042
     25  CE1        8.6480   21.5960   10.3630 C.ar    5  PHE5       -0.0003
     26  CE2        8.1710   22.2250    8.0930 C.ar    5  PHE5       -0.0003
     27  CZ         8.3080   22.5770    9.4430 C.ar    5  PHE5       -0.0000
     28  N          6.3640   16.9090    8.2030 N.am    6  GLY6       -0.1957
     29  CA         4.9220   16.9100    8.3570 C.3     6  GLY6        0.1869
     30  C          4.4910   15.9810    9.4580 C.2     6  GLY6        0.2309
     31  O          3.5290   16.2910   10.1880 O.2     6  GLY6       -0.2863
     32  N         -0.0410   18.7460    8.3820 N.3    17  ALA17      -0.1231
     33  CA         0.8080   19.7320    7.7400 C.3    17  ALA17       0.1694
     34  C          0.2030   20.2090    6.4280 C.2    17  ALA17       0.2591
     35  O          0.2380   21.4130    6.1810 O.2    17  ALA17      -0.2718
     36  CB         2.1850   19.1210    7.5160 C.3    17  ALA17       0.0304
     37  N         -0.3010   19.2760    5.6200 N.am   18  ILE18      -0.1980
     38  CA        -1.1710   19.6170    4.4970 C.3    18  ILE18       0.1595
     39  C         -2.5910   19.3040    4.9700 C.2    18  ILE18       0.2287
     40  O         -2.9010   18.1390    5.2370 O.2    18  ILE18      -0.2864
     41  CB        -0.8840   18.7430    3.2740 C.3    18  ILE18       0.0276
     42  CG1        0.5690   18.7260    2.8030 C.3    18  ILE18       0.0022
     43  CG2       -1.7750   19.0940    2.0920 C.3    18  ILE18       0.0022
     44  CD1        0.7100   17.4170    2.0130 C.3    18  ILE18       0.0001
     45  N         -0.4750   23.8110    7.2960 N.3    21  TYR21      -0.1227
     46  CA         0.7640   24.6040    7.3070 C.3    21  TYR21       0.1736
     47  C          1.4520   24.6270    5.9370 C.2    21  TYR21       0.2596
     48  O          2.6100   25.0760    5.7630 O.2    21  TYR21      -0.2718
     49  CB         1.7620   24.0640    8.3250 C.3    21  TYR21       0.0548
     50  CG         1.3020   24.1680    9.7650 C.ar   21  TYR21      -0.0200
     51  CD1        1.4590   25.3700   10.4390 C.ar   21  TYR21      -0.0009
     52  CD2        0.7400   23.1000   10.4490 C.ar   21  TYR21      -0.0009
     53  CE1        1.0620   25.5200   11.7460 C.ar   21  TYR21       0.0417
     54  CE2        0.3470   23.2140   11.7530 C.ar   21  TYR21       0.0417
     55  CZ         0.5080   24.4240   12.3980 C.ar   21  TYR21       0.1957
     56  OH         0.1350   24.6340   13.7080 O.3    21  TYR21      -0.2866
     57  N          0.8080   24.1290    4.8920 N.am   22  SER22      -0.1952
     58  CA         1.3950   23.9950    3.5770 C.3    22  SER22       0.1924
     59  C          1.1740   25.2300    2.7270 C.2    22  SER22       0.2314
     60  O          1.8250   25.3750    1.6720 O.2    22  SER22      -0.2863
     61  CB         0.8160   22.7520    2.8280 C.3    22  SER22       0.2116
     62  OG        -0.5970   22.7480    3.0430 O.3    22  SER22      -0.2180
     63  N          4.8390   32.6420    4.3200 N.3    27  TYR27      -0.1241
     64  CA         6.0810   31.8670    4.3590 C.3    27  TYR27       0.1605
     65  C          5.8710   30.3900    4.5550 C.2    27  TYR27       0.2264
     66  O          6.8480   29.6530    4.3790 O.2    27  TYR27      -0.2867
     67  CB         7.0310   32.4070    5.4780 C.3    27  TYR27       0.0534
     68  CG         7.5420   33.7440    5.0330 C.ar   27  TYR27      -0.0201
     69  CD1        6.9120   34.9290    5.3870 C.ar   27  TYR27      -0.0009
     70  CD2        8.6630   33.8110    4.2130 C.ar   27  TYR27      -0.0009
     71  CE1        7.3730   36.1700    4.9790 C.ar   27  TYR27       0.0417
     72  CE2        9.1130   35.0380    3.7820 C.ar   27  TYR27       0.0417
     73  CZ         8.4910   36.2080    4.1580 C.ar   27  TYR27       0.1957
     74  OH         9.0370   37.3850    3.6500 O.3    27  TYR27      -0.2866
     75  N          5.1270   26.8060    3.6330 N.3    29  GLY29      -0.1210
     76  CA         4.9010   25.8750    2.5630 C.3    29  GLY29       0.1956
     77  C          5.3170   26.4530    1.2550 C.2    29  GLY29       0.2612
     78  O          5.4410   25.6920    0.2880 O.2    29  GLY29      -0.2717
     79  N          5.5440   27.7640    1.2000 N.am   30  TRP30      -0.1962
     80  CA         5.8640   28.3620   -0.0990 C.3    30  TRP30       0.1771
     81  C          6.2810   29.8090    0.0930 C.2    30  TRP30       0.2620
     82  O          5.8790   30.7040   -0.6550 O.2    30  TRP30      -0.2715
     83  CB         4.6440   28.2490   -1.0190 C.3    30  TRP30       0.0590
     84  CG         4.9420   27.5050   -2.2820 C.ar   30  TRP30       0.0006
     85  CD1        5.1310   26.1650   -2.4350 C.ar   30  TRP30       0.0946
     86  CD2        5.0730   28.0600   -3.5960 C.ar   30  TRP30       0.0152
     87  NE1        5.3890   25.8420   -3.7400 N.ar   30  TRP30      -0.2442
     88  CE2        5.3580   26.9970   -4.4790 C.ar   30  TRP30       0.0810
     89  CE3        4.9790   29.3650   -4.0960 C.ar   30  TRP30       0.0012
     90  CZ2        5.5550   27.1790   -5.8540 C.ar   30  TRP30       0.0191
     91  CZ3        5.1740   29.5380   -5.4530 C.ar   30  TRP30       0.0001
     92  CH2        5.4510   28.4640   -6.3090 C.ar   30  TRP30       0.0015
     93  N          7.1060   30.0210    1.1200 N.am   31  GLY31      -0.1940
     94  CA         7.5640   31.3400    1.4740 C.3    31  GLY31       0.2017
     95  C          8.4460   32.0500    0.4740 C.2    31  GLY31       0.2678
     96  O          8.9580   31.4350   -0.4650 O.2    31  GLY31      -0.2710
     97  N          8.6680   33.3510    0.6410 N.am   32  GLY32      -0.1729
     98  CA         9.5970   34.1240   -0.1570 C.2    32  GLY32       0.1340
     99  C          9.6310   35.6040    0.1320 C.2    32  GLY32       0.2521
    100  O         10.7010   36.2310    0.1840 O.2    32  GLY32      -0.2816
    101  N         11.9490   29.1940    9.6880 N.3    47  HIS47      -0.1226
    102  CA        12.2900   27.8650    9.1580 C.3    47  HIS47       0.1752
    103  C         12.8780   27.9930    7.7440 C.2    47  HIS47       0.2596
    104  O         13.8150   27.3080    7.4100 O.2    47  HIS47      -0.2718
    105  CB        11.0250   27.0210    9.1740 C.3    47  HIS47       0.0759
    106  CG        11.2130   25.6100    8.7260 C.ar   47  HIS47       0.0818
    107  ND1       10.6540   25.1340    7.5690 N.ar   47  HIS47      -0.2268
    108  CD2       11.8370   24.5850    9.3260 C.ar   47  HIS47       0.1154
    109  CE1       10.9570   23.8540    7.4490 C.ar   47  HIS47       0.1986
    110  NE2       11.6630   23.4880    8.5040 N.ar   47  HIS47      -0.2212
    111  N         12.3120   28.8830    6.9460 N.am   48  ASP48      -0.1974
    112  CA        12.8270   29.1300    5.6020 C.3    48  ASP48       0.1709
    113  C         14.2530   29.6730    5.7080 C.2    48  ASP48       0.2293
    114  O         15.1600   29.2110    4.9740 O.2    48  ASP48      -0.2864
    115  CB        11.9600   30.1190    4.8870 C.3    48  ASP48       0.1436
    116  CG        10.5670   29.6130    4.5250 C.2    48  ASP48       0.3671
    117  OD1       10.2900   28.4190    4.6160 O.co2  48  ASP48      -0.2456
    118  OD2        9.6930   30.4460    4.1970 O.co2  48  ASP48      -0.2456
    119  N         16.5780   26.7310    6.6530 N.3    51  TYR51      -0.1241
    120  CA        16.9650   25.9700    5.4750 C.3    51  TYR51       0.1605
    121  C         17.9100   26.7410    4.5730 C.2    51  TYR51       0.2264
    122  O         18.7980   26.1700    3.9790 O.2    51  TYR51      -0.2867
    123  CB        15.7240   25.5950    4.6880 C.3    51  TYR51       0.0534
    124  CG        14.9460   24.4040    5.1940 C.ar   51  TYR51      -0.0201
    125  CD1       15.2340   23.7150    6.3740 C.ar   51  TYR51      -0.0009
    126  CD2       13.8770   24.0020    4.4210 C.ar   51  TYR51      -0.0009
    127  CE1       14.4540   22.6250    6.7550 C.ar   51  TYR51       0.0417
    128  CE2       13.0880   22.9180    4.7740 C.ar   51  TYR51       0.0417
    129  CZ        13.3980   22.2360    5.9470 C.ar   51  TYR51       0.1957
    130  OH        12.6180   21.1660    6.3060 O.3    51  TYR51      -0.2866
    131  N         14.1970   19.0430    1.5470 N.3    60  LYS60      -0.1245
    132  CA        12.9420   18.4040    1.1070 C.3    60  LYS60       0.1561
    133  C         13.0110   16.8920    1.1300 C.2    60  LYS60       0.2260
    134  O         12.0270   16.2100    1.4310 O.2    60  LYS60      -0.2867
    135  CB        12.5640   18.8850   -0.2980 C.3    60  LYS60       0.0271
    136  CG        12.5000   20.4070   -0.3050 C.3    60  LYS60       0.0035
    137  CD        11.1200   20.9950   -0.4930 C.3    60  LYS60       0.0206
    138  CE        11.1870   22.2720   -1.3340 C.3    60  LYS60       0.1093
    139  NZ        12.0730   22.0360   -2.5250 N.3    60  LYS60      -0.1314
@<TRIPOS>BOND
     1    92    90   ar
     2    92    91   ar
     3    90    88   ar
     4    91    89   ar
     5    88    87   ar
     6    88    86   ar
     7    89    86   ar
     8    87    85   ar
     9    86    84   ar
    10   139   138    1
    11    85    84   ar
    12    84    83    1
    13   138   137    1
    14    83    80    1
    15    82    81    2
    16   137   136    1
    17    96    95    2
    18   136   135    1
    19   135   132    1
    20    98    99    1
    21    98    97    2
    22    80    81    1
    23    80    79    1
    24    81    93   am
    25    99   100    2
    26    78    77    2
    27    95    97    1
    28    95    94    1
    29   132   133    1
    30   132   131    1
    31    93    94    1
    32   133   134    2
    33     8     6    1
    34    79    77   am
    35    77    76    1
    36    60    59    2
    37    44    42    1
    38    43    41    1
    39    76    75    1
    40    15    14    1
    41     6     5    1
    42     6     7    1
    43     5     2    1
    44    59    58    1
    45    42    41    1
    46    61    62    1
    47    61    58    1
    48    14    16    1
    49    14    13    1
    50    41    38    1
    51    58    57    1
    52    74    73    1
    53    72    73   ar
    54    72    70   ar
    55     1     2    1
    56   122   121    2
    57     2     3    1
    58    73    71   ar
    59   118   116   ar
    60    70    68   ar
    61    13    10    1
    62    63    64    1
    63     9     3   am
    64     9    10    1
    65    64    65    1
    66    64    67    1
    67    66    65    2
    68   126   128   ar
    69   126   124   ar
    70    38    39    1
    71    38    37    1
    72   116   117   ar
    73   116   115    1
    74   121   120    1
    75     3     4    2
    76   123   124    1
    77   123   120    1
    78   128   129   ar
    79   115   112    1
    80    57    47   am
    81    10    11    1
    82    39    40    2
    83   114   113    2
    84    71    69   ar
    85    68    69   ar
    86    68    67    1
    87   124   125   ar
    88   120   119    1
    89   112   113    1
    90   112   111    1
    91    37    34   am
    92    48    47    2
    93    47    46    1
    94   129   130    1
    95   129   127   ar
    96    35    34    2
    97   125   127   ar
    98    11    12    2
    99    34    33    1
   100   111   103   am
   101    45    46    1
   102    46    49    1
   103   104   103    2
   104   109   107   ar
   105   109   110   ar
   106    36    33    1
   107   107   106   ar
   108    24    26   ar
   109    24    22   ar
   110    33    32    1
   111   103   102    1
   112    21    22    1
   113    21    18    1
   114    26    27   ar
   115    28    29    1
   116    28    19   am
   117    49    50    1
   118    17    18    1
   119    29    30    1
   120   110   108   ar
   121    22    23   ar
   122   106   105    1
   123   106   108   ar
   124    18    19    1
   125   102   105    1
   126   102   101    1
   127    19    20    2
   128    27    25   ar
   129    30    31    2
   130    50    51   ar
   131    50    52   ar
   132    23    25   ar
   133    51    53   ar
   134    52    54   ar
   135    53    55   ar
   136    54    55   ar
   137    55    56    1
