@<TRIPOS>MOLECULE
tmp/1skjA00.pdb
 148 142 0 0 0
SMALL
GASTEIGER

@<TRIPOS>ATOM
      1  N        -16.5270   66.8590   -3.4120 N.3    10  ARG10      -0.1245
      2  CA       -15.1010   67.2150   -3.3210 C.3    10  ARG10       0.1563
      3  C        -14.7800   68.4060   -2.4220 C.2    10  ARG10       0.2260
      4  O        -14.0330   68.3100   -1.4640 O.2    10  ARG10      -0.2867
      5  CB       -14.5820   67.4880   -4.7200 C.3    10  ARG10       0.0307
      6  CG       -13.1170   67.7870   -4.7430 C.3    10  ARG10       0.0489
      7  CD       -12.8200   68.7440   -5.8610 C.3    10  ARG10       0.2205
      8  NE       -11.4540   69.1680   -5.6540 N.pl3  10  ARG10      -0.0865
      9  CZ       -10.6330   69.3580   -6.6610 C.cat  10  ARG10       0.5346
     10  NH1      -11.0460   69.1230   -7.8860 N.pl3  10  ARG10       0.1354
     11  NH2       -9.4300   69.8000   -6.4010 N.pl3  10  ARG10       0.1354
     12  N        -14.9770   58.4710   -0.4930 N.3    30  ARG30      -0.1245
     13  CA       -16.2610   58.9430   -0.9930 C.3    30  ARG30       0.1563
     14  C        -16.5110   58.4620   -2.4030 C.2    30  ARG30       0.2260
     15  O        -15.6320   57.9330   -3.0650 O.2    30  ARG30      -0.2867
     16  CB       -16.3200   60.4720   -0.9940 C.3    30  ARG30       0.0307
     17  CG       -15.1820   61.1360   -1.7880 C.3    30  ARG30       0.0489
     18  CD       -15.3070   62.6550   -1.9330 C.3    30  ARG30       0.2205
     19  NE       -14.1570   63.2470   -2.6180 N.pl3  30  ARG30      -0.0865
     20  CZ       -14.2450   63.5440   -3.9180 C.cat  30  ARG30       0.5346
     21  NH1      -15.2990   63.2380   -4.6290 N.pl3  30  ARG30       0.1354
     22  NH2      -13.2510   64.1510   -4.5070 N.pl3  30  ARG30       0.1354
     23  N        -16.6480   59.2370   -6.3780 N.3    32  SER32      -0.1202
     24  CA       -16.3100   60.2150   -7.4170 C.3    32  SER32       0.2020
     25  C        -17.4860   61.0210   -7.9990 C.2    32  SER32       0.2619
     26  O        -18.4450   60.4450   -8.4950 O.2    32  SER32      -0.2717
     27  CB       -15.6100   59.5450   -8.5920 C.3    32  SER32       0.2103
     28  OG       -15.2030   60.5950   -9.4830 O.3    32  SER32      -0.2182
     29  N        -17.3700   62.3690   -7.9750 N.am   33  GLU33      -0.1965
     30  CA       -18.3720   63.2600   -8.6010 C.3    33  GLU33       0.1733
     31  C        -18.3780   63.2390  -10.1250 C.2    33  GLU33       0.2617
     32  O        -19.3610   63.4280  -10.8480 O.2    33  GLU33      -0.2715
     33  CB       -18.1820   64.7220   -8.1970 C.3    33  GLU33       0.0429
     34  CG       -18.1130   65.0050   -6.6910 C.3    33  GLU33       0.1163
     35  CD       -18.0390   66.5190   -6.4430 C.2    33  GLU33       0.3649
     36  OE1      -16.9750   67.1190   -6.6090 O.co2  33  GLU33      -0.2457
     37  OE2      -19.0410   67.1110   -6.0530 O.co2  33  GLU33      -0.2457
     38  N        -17.1740   62.9760  -10.6110 N.am   34  THR34      -0.1951
     39  CA       -16.9180   63.0360  -12.0490 C.3    34  THR34       0.1897
     40  C        -16.7180   61.7010  -12.7520 C.2    34  THR34       0.2313
     41  O        -16.9190   61.5420  -13.9420 O.2    34  THR34      -0.2863
     42  CB       -15.6880   63.8880  -12.3020 C.3    34  THR34       0.1794
     43  OG1      -14.5470   63.3170  -11.6610 O.3    34  THR34      -0.2208
     44  CG2      -15.9170   65.2830  -11.7540 C.3    34  THR34       0.0378
     45  N        -13.2910   57.7920   -4.5030 N.3    40  CYS40      -0.1235
     46  CA       -12.1040   58.6030   -4.1800 C.3    40  CYS40       0.1677
     47  C        -11.6290   58.5050   -2.7530 C.2    40  CYS40       0.2270
     48  O        -12.3860   58.6390   -1.8020 O.2    40  CYS40      -0.2867
     49  CB       -12.2820   60.1170   -4.3080 C.3    40  CYS40       0.0956
     50  SG       -12.2400   60.6520   -6.0110 S.3    40  CYS40      -0.0801
     51  N         -4.8930   65.9030   -1.2060 N.3    55  LYS55      -0.1227
     52  CA        -4.7400   65.0910   -2.4110 C.3    55  LYS55       0.1736
     53  C         -5.9680   64.1780   -2.6170 C.2    55  LYS55       0.2595
     54  O         -6.5540   63.6380   -1.6850 O.2    55  LYS55      -0.2718
     55  CB        -3.4480   64.2630   -2.3300 C.3    55  LYS55       0.0541
     56  CG        -2.1350   64.9500   -1.8790 C.2    55  LYS55      -0.0272
     57  CD        -1.4150   65.8130   -2.9190 C.2    55  LYS55      -0.0103
     58  CE         0.0700   66.2110   -2.6520 C.3    55  LYS55       0.1350
     59  NZ         0.3230   67.1530   -1.5370 N.3    55  LYS55      -0.1262
     60  N         -6.3700   64.0470   -3.8850 N.am   56  HIS56      -0.1961
     61  CA        -7.4010   63.0280   -4.1290 C.3    56  HIS56       0.1787
     62  C         -6.9760   61.9290   -5.1060 C.2    56  HIS56       0.2620
     63  O         -6.4290   62.1620   -6.1800 O.2    56  HIS56      -0.2715
     64  CB        -8.7120   63.5780   -4.6660 C.3    56  HIS56       0.0785
     65  CG        -9.2050   64.8200   -3.9730 C.ar   56  HIS56       0.0821
     66  ND1      -10.1520   64.8140   -3.0100 N.ar   56  HIS56      -0.2267
     67  CD2       -8.8570   66.1450   -4.2580 C.ar   56  HIS56       0.1154
     68  CE1      -10.4100   66.1220   -2.6890 C.ar   56  HIS56       0.1986
     69  NE2       -9.6150   66.9240   -3.4570 N.ar   56  HIS56      -0.2212
     70  N         -7.2560   60.7050   -4.6890 N.am   57  TYR57      -0.1960
     71  CA        -6.8770   59.5620   -5.5160 C.3    57  TYR57       0.1771
     72  C         -8.0870   58.8230   -6.0800 C.2    57  TYR57       0.2619
     73  O         -8.8930   58.2520   -5.3490 O.2    57  TYR57      -0.2715
     74  CB        -6.0120   58.5620   -4.7080 C.3    57  TYR57       0.0574
     75  CG        -4.7500   59.1970   -4.1670 C.ar   57  TYR57      -0.0198
     76  CD1       -4.7960   59.9620   -2.9750 C.ar   57  TYR57      -0.0009
     77  CD2       -3.5630   59.0230   -4.8940 C.ar   57  TYR57      -0.0009
     78  CE1       -3.6440   60.6250   -2.5310 C.ar   57  TYR57       0.0417
     79  CE2       -2.4020   59.6700   -4.4380 C.ar   57  TYR57       0.0417
     80  CZ        -2.4550   60.4580   -3.2710 C.ar   57  TYR57       0.1957
     81  OH        -1.2950   61.0650   -2.8470 O.3    57  TYR57      -0.2866
     82  N         -8.1920   58.8330   -7.4110 N.am   58  LYS58      -0.1977
     83  CA        -9.1810   57.9040   -7.9610 C.3    58  LYS58       0.1596
     84  C         -8.9950   56.4080   -7.6710 C.2    58  LYS58       0.2287
     85  O         -7.9760   55.7760   -7.9310 O.2    58  LYS58      -0.2864
     86  CB        -9.4560   58.1880   -9.4400 C.3    58  LYS58       0.0298
     87  CG       -10.9670   58.0690   -9.7020 C.3    58  LYS58       0.0038
     88  CD       -11.5620   59.0110  -10.7580 C.3    58  LYS58       0.0206
     89  CE       -11.2850   60.5010  -10.5080 C.3    58  LYS58       0.1093
     90  NZ       -12.2910   61.3830  -11.1390 N.3    58  LYS58      -0.1314
     91  N        -10.4870   53.0460   -8.8470 N.3    60  ARG60      -0.1245
     92  CA       -11.2010   52.2550   -9.8380 C.3    60  ARG60       0.1563
     93  C        -11.3680   50.8010   -9.4840 C.2    60  ARG60       0.2260
     94  O        -10.7960   50.2440   -8.5580 O.2    60  ARG60      -0.2867
     95  CB       -10.5440   52.4140  -11.2050 C.3    60  ARG60       0.0307
     96  CG       -10.9870   53.7380  -11.8170 C.3    60  ARG60       0.0489
     97  CD       -10.2610   54.0440  -13.1150 C.3    60  ARG60       0.2205
     98  NE        -9.2230   55.0480  -12.9100 N.pl3  60  ARG60      -0.0865
     99  CZ        -9.3370   56.2080  -13.5490 C.cat  60  ARG60       0.5346
    100  NH1      -10.3790   56.4870  -14.2970 N.pl3  60  ARG60       0.1354
    101  NH2       -8.3780   57.0830  -13.4240 N.pl3  60  ARG60       0.1354
    102  N         -5.9920   51.9610   -6.9720 N.3    69  ILE69      -0.1231
    103  CA        -5.4590   53.2750   -7.4040 C.3    69  ILE69       0.1692
    104  C         -4.4540   53.2090   -8.5740 C.2    69  ILE69       0.2592
    105  O         -4.4730   53.9870   -9.5190 O.2    69  ILE69      -0.2718
    106  CB        -4.8190   54.0020   -6.1980 C.3    69  ILE69       0.0266
    107  CG1       -5.8430   54.0770   -5.0690 C.3    69  ILE69       0.0019
    108  CG2       -4.3240   55.4070   -6.5600 C.3    69  ILE69       0.0020
    109  CD1       -5.3290   54.7990   -3.8190 C.3    69  ILE69       0.0001
    110  N         -3.5640   52.2210   -8.4650 N.am   70  THR70      -0.1953
    111  CA        -2.7010   51.8090   -9.5710 C.3    70  THR70       0.1897
    112  C         -2.9010   50.3480   -9.8910 C.2    70  THR70       0.2313
    113  O         -3.1720   49.5370   -9.0160 O.2    70  THR70      -0.2863
    114  CB        -1.2150   52.0950   -9.2980 C.3    70  THR70       0.1794
    115  OG1       -0.3990   51.5790  -10.3450 O.3    70  THR70      -0.2208
    116  CG2       -0.6670   51.6170   -7.9580 C.3    70  THR70       0.0378
    117  N         -2.8570   50.9990    2.7590 N.3    85  TYR85      -0.1241
    118  CA        -2.3370   52.3600    2.7750 C.3    85  TYR85       0.1605
    119  C         -2.1400   53.0220    4.1420 C.2    85  TYR85       0.2264
    120  O         -1.3920   53.9620    4.3490 O.2    85  TYR85      -0.2867
    121  CB        -3.2070   53.1630    1.8090 C.3    85  TYR85       0.0534
    122  CG        -2.9080   52.7580    0.3750 C.ar   85  TYR85      -0.0201
    123  CD1       -1.6090   52.9560   -0.1410 C.ar   85  TYR85      -0.0009
    124  CD2       -3.9410   52.2370   -0.4350 C.ar   85  TYR85      -0.0009
    125  CE1       -1.3430   52.7030   -1.5000 C.ar   85  TYR85       0.0417
    126  CE2       -3.6870   51.9690   -1.7940 C.ar   85  TYR85       0.0417
    127  CZ        -2.3930   52.2180   -2.3040 C.ar   85  TYR85       0.1957
    128  OH        -2.1500   51.9860   -3.6450 O.3    85  TYR85      -0.2866
    129  N          3.3700   53.6110   -0.0990 N.3    90  ASP90      -0.1225
    130  CA         3.5420   52.9570   -1.4280 C.3    90  ASP90       0.1805
    131  C          3.3050   53.8650   -2.6660 C.2    90  ASP90       0.2598
    132  O          2.5170   53.6190   -3.5710 O.2    90  ASP90      -0.2718
    133  CB         2.7290   51.6270   -1.4340 C.3    90  ASP90       0.1424
    134  CG         3.0830   50.6650   -2.5690 C.2    90  ASP90       0.3668
    135  OD1        4.2350   50.5980   -2.9600 O.co2  90  ASP90      -0.2456
    136  OD2        2.2040   49.9720   -3.0750 O.co2  90  ASP90      -0.2456
    137  N          3.9810   55.0250   -2.6450 N.am   91  GLY91      -0.1942
    138  CA         3.6050   56.0110   -3.6730 C.3    91  GLY91       0.2014
    139  C          2.6110   57.1330   -3.2920 C.2    91  GLY91       0.2638
    140  O          2.5950   58.1950   -3.8940 O.2    91  GLY91      -0.2714
    141  N          1.7500   56.8810   -2.2840 N.am   92  LEU92      -0.1977
    142  CA         0.8850   57.9680   -1.7770 C.3    92  LEU92       0.1596
    143  C          1.6110   59.1620   -1.1550 C.2    92  LEU92       0.2287
    144  O          2.6850   59.0180   -0.5830 O.2    92  LEU92      -0.2864
    145  CB        -0.0690   57.4040   -0.7260 C.3    92  LEU92       0.0297
    146  CG        -1.4960   57.0980   -1.1400 C.3    92  LEU92       0.0022
    147  CD1       -1.6480   56.3140   -2.4550 C.3    92  LEU92       0.0001
    148  CD2       -2.2040   56.4310    0.0400 C.3    92  LEU92       0.0001
@<TRIPOS>BOND
     1   100    99    1
     2    41    40    2
     3    99   101    1
     4    99    98    2
     5    97    98    1
     6    97    96    1
     7    40    39    1
     8    42    39    1
     9    42    44    1
    10    42    43    1
    11    39    38    1
    12    96    95    1
    13    95    92    1
    14    90    89    1
    15    32    31    2
    16    88    89    1
    17    88    87    1
    18    38    31   am
    19   115   114    1
    20    31    30    1
    21   112   111    1
    22   112   113    2
    23    92    93    1
    24    92    91    1
    25    87    86    1
    26   111   114    1
    27   111   110    1
    28   105   104    2
    29    93    94    2
    30    28    27    1
    31    86    83    1
    32   114   116    1
    33    30    33    1
    34    30    29    1
    35    27    24    1
    36   104   110   am
    37   104   103    1
    38    26    25    2
    39    33    34    1
    40    25    29   am
    41    25    24    1
    42    83    84    1
    43    83    82    1
    44    85    84    2
    45    10     9    1
    46    24    23    1
    47    82    72   am
    48   103   102    1
    49   103   106    1
    50    34    35    1
    51     9    11    1
    52     9     8    2
    53    36    35   ar
    54   108   106    1
    55    35    37   ar
    56   106   107    1
    57    63    62    2
    58    72    71    1
    59    72    73    2
    60    50    49    1
    61     7     8    1
    62     7     6    1
    63    71    74    1
    64    71    70    1
    65    62    70   am
    66    62    61    1
    67   107   109    1
    68    77    79   ar
    69    77    75   ar
    70     6     5    1
    71     5     2    1
    72    74    75    1
    73    64    61    1
    74    64    65    1
    75    21    20    1
    76    22    20    1
    77    45    46    1
    78    79    80   ar
    79    49    46    1
    80    67    65   ar
    81    67    69   ar
    82    46    47    1
    83    75    76   ar
    84    61    60    1
    85    65    66   ar
    86    20    19    2
    87   140   139    2
    88    60    53   am
    89   138   139    1
    90   138   137    1
    91   128   127    1
    92   132   131    2
    93    69    68   ar
    94     1     2    1
    95     2     3    1
    96   139   141   am
    97    80    81    1
    98    80    78   ar
    99   136   134   ar
   100    15    14    2
   101    66    68   ar
   102    76    78   ar
   103   135   134   ar
   104    57    58    1
   105    57    56    2
   106    47    48    2
   107   131   137   am
   108   131   130    1
   109    58    59    1
   110    19    18    1
   111    53    52    1
   112    53    54    2
   113   134   133    1
   114   147   146    1
   115     3     4    2
   116    52    55    1
   117    52    51    1
   118    14    13    1
   119    55    56    1
   120   127   126   ar
   121   127   125   ar
   122   141   142    1
   123    18    17    1
   124   126   124   ar
   125    17    16    1
   126   142   143    1
   127   142   145    1
   128   125   123   ar
   129   133   130    1
   130   130   129    1
   131   143   144    2
   132   146   145    1
   133   146   148    1
   134    16    13    1
   135    13    12    1
   136   124   122   ar
   137   123   122   ar
   138   122   121    1
   139   121   118    1
   140   117   118    1
   141   118   119    1
   142   119   120    2
