@<TRIPOS>MOLECULE
tmp/1sknC00.pdb
 84 80 0 0 0
SMALL
GASTEIGER

@<TRIPOS>ATOM
      1  N         40.1500   36.0560    5.3530 N.3    16  PRO16      -0.2102
      2  CA        41.2100   36.2090    6.3310 C.3    16  PRO16       0.1504
      3  C         40.8110   36.0600    7.7880 C.2    16  PRO16       0.2572
      4  O         41.6600   36.1830    8.6600 O.2    16  PRO16      -0.2718
      5  CB        41.8190   37.5820    6.1180 C.3    16  PRO16       0.0282
      6  CG        40.6950   38.3480    5.4910 C.3    16  PRO16       0.0208
      7  CD        39.8920   37.3540    4.6750 C.3    16  PRO16       0.0893
      8  N         39.5220   35.8820    8.0590 N.am   17  VAL17      -0.2033
      9  CA        39.0370   35.7470    9.4240 C.3    17  VAL17       0.1282
     10  C         38.0980   34.6350    9.4290 C.3    17  VAL17       0.2035
     11  O         37.7690   34.2840    8.3230 O.3    17  VAL17      -0.2185
     12  CB        38.3460   36.9590   10.0050 C.3    17  VAL17       0.0226
     13  CG1       39.3670   38.0090   10.3050 C.3    17  VAL17       0.0018
     14  CG2       37.3520   37.4250    8.9530 C.3    17  VAL17       0.0018
     15  N         33.0950   32.8260   13.0560 N.3    20  PHE20      -0.1227
     16  CA        32.9690   33.2590   14.4280 C.3    20  PHE20       0.1736
     17  C         33.5640   34.6720   14.6010 C.2    20  PHE20       0.2595
     18  O         32.9460   35.6030   15.1040 O.2    20  PHE20      -0.2718
     19  CB        33.5910   32.2370   15.3750 C.3    20  PHE20       0.0547
     20  CG        33.2510   32.6610   16.7360 C.ar   20  PHE20      -0.0202
     21  CD1       31.9710   32.4250   17.2260 C.ar   20  PHE20      -0.0042
     22  CD2       34.1230   33.4930   17.4360 C.ar   20  PHE20      -0.0042
     23  CE1       31.5980   32.9560   18.4610 C.ar   20  PHE20      -0.0003
     24  CE2       33.7710   34.0110   18.6840 C.ar   20  PHE20      -0.0003
     25  CZ        32.5050   33.7210   19.1940 C.ar   20  PHE20      -0.0000
     26  N         34.7760   34.8750   14.1360 N.am   21  GLN21      -0.1979
     27  CA        35.3930   36.1770   14.1990 C.3    21  GLN21       0.1601
     28  C         34.6140   37.2420   13.5490 C.2    21  GLN21       0.2287
     29  O         34.3550   38.3350   14.0750 O.2    21  GLN21      -0.2864
     30  CB        36.7670   36.1860   13.5910 C.3    21  GLN21       0.0394
     31  CG        37.7340   35.4170   14.4970 C.3    21  GLN21       0.0908
     32  CD        39.1430   35.5030   14.0310 C.2    21  GLN21       0.2608
     33  OE1       39.4450   35.5150   12.8310 O.2    21  GLN21      -0.2717
     34  NE2       40.0110   35.3920   14.9960 N.am   21  GLN21      -0.0878
     35  N         31.4850   38.1460   15.5290 N.3    24  GLU24      -0.1231
     36  CA        31.6520   38.6530   16.8590 C.3    24  GLU24       0.1699
     37  C         32.6240   39.7640   16.9030 C.2    24  GLU24       0.2592
     38  O         32.6250   40.5020   17.8520 O.2    24  GLU24      -0.2718
     39  CB        32.0910   37.5770   17.8470 C.3    24  GLU24       0.0402
     40  CG        31.1520   36.3740   17.7410 C.3    24  GLU24       0.1161
     41  CD        29.7400   36.7730   17.4130 C.2    24  GLU24       0.3649
     42  OE1       29.2290   37.6590   18.2250 O.co2  24  GLU24      -0.2457
     43  OE2       29.1320   36.3270   16.4750 O.co2  24  GLU24      -0.2457
     44  N         33.4720   39.8950   15.9190 N.am   25  MET25      -0.1979
     45  CA        34.3950   40.9720   16.0350 C.3    25  MET25       0.1605
     46  C         33.6360   42.2600   16.1220 C.2    25  MET25       0.2287
     47  O         32.5820   42.4620   15.5490 O.2    25  MET25      -0.2864
     48  CB        35.3650   40.8620   14.8440 C.3    25  MET25       0.0413
     49  CG        35.1950   41.9570   13.7900 C.3    25  MET25       0.0598
     50  SD        36.5110   41.7830   12.5850 S.3    25  MET25      -0.1393
     51  CE        36.5210   39.9940   12.5770 C.3    25  MET25       0.0692
     52  N         36.3260   46.6790   14.4920 N.3    29  GLU29      -0.1245
     53  CA        37.3890   45.8140   14.2410 C.3    29  GLU29       0.1567
     54  C         37.3310   45.4440   12.7830 C.2    29  GLU29       0.2260
     55  O         38.3340   45.4590   12.0210 O.2    29  GLU29      -0.2867
     56  CB        37.2120   44.6140   15.1900 C.3    29  GLU29       0.0388
     57  CG        38.3740   44.4200   16.1940 C.3    29  GLU29       0.1160
     58  CD        37.9650   43.6260   17.4180 C.2    29  GLU29       0.3649
     59  OE1       36.6880   43.2730   17.3770 O.co2  29  GLU29      -0.2457
     60  OE2       38.6850   43.4740   18.4000 O.co2  29  GLU29      -0.2457
     61  N         39.5700   45.2440    9.2540 N.3    33  VAL33      -0.1245
     62  CA        39.7190   44.1030    8.3860 C.3    33  VAL33       0.1561
     63  C         39.4260   44.4430    6.9600 C.2    33  VAL33       0.2260
     64  O         40.0550   44.0590    5.9600 O.2    33  VAL33      -0.2867
     65  CB        38.8380   42.9810    8.8040 C.3    33  VAL33       0.0252
     66  CG1       38.7240   41.8860    7.7700 C.3    33  VAL33       0.0019
     67  CG2       39.4230   42.3540   10.0040 C.3    33  VAL33       0.0019
     68  N         41.9470   46.9300    5.1730 N.3    36  ASN36      -0.1225
     69  CA        43.2970   46.4070    5.0000 C.3    36  ASN36       0.1785
     70  C         43.4930   45.2050    4.1570 C.2    36  ASN36       0.2597
     71  O         44.6260   44.9430    3.8410 O.2    36  ASN36      -0.2718
     72  CB        44.0170   46.0340    6.3270 C.3    36  ASN36       0.1169
     73  CG        44.2400   47.2600    7.2200 C.2    36  ASN36       0.2627
     74  OD1       45.3610   47.6640    7.4770 O.2    36  ASN36      -0.2716
     75  ND2       43.1610   47.9110    7.6510 N.am   36  ASN36      -0.0877
     76  N         42.4220   44.4580    3.8910 N.am   37  GLU37      -0.1979
     77  CA        42.4570   43.2010    3.1550 C.3    37  GLU37       0.1602
     78  C         42.0490   43.3470    1.6740 C.2    37  GLU37       0.2287
     79  O         41.2780   44.2220    1.3290 O.2    37  GLU37      -0.2864
     80  CB        41.5340   42.1760    3.8910 C.3    37  GLU37       0.0415
     81  CG        41.9470   41.8250    5.3160 C.3    37  GLU37       0.1163
     82  CD        43.3920   41.3460    5.3680 C.2    37  GLU37       0.3649
     83  OE1       43.6020   40.3670    4.5260 O.co2  37  GLU37      -0.2457
     84  OE2       44.3150   41.9060    5.9640 O.co2  37  GLU37      -0.2457
@<TRIPOS>BOND
     1    79    78    2
     2    78    77    1
     3    77    80    1
     4    77    76    1
     5    71    70    2
     6    80    81    1
     7    76    70   am
     8    70    69    1
     9    83    82   ar
    10     7     1    1
    11     7     6    1
    12    69    68    1
    13    69    72    1
    14    81    82    1
    15     1     2    1
    16    82    84   ar
    17     6     5    1
    18    64    63    2
    19     5     2    1
    20    72    73    1
    21     2     3    1
    22    63    62    1
    23    73    74    2
    24    73    75   am
    25    66    65    1
    26     3     8   am
    27     3     4    2
    28     8     9    1
    29    11    10    1
    30    62    65    1
    31    62    61    1
    32    65    67    1
    33    14    12    1
    34     9    10    1
    35     9    12    1
    36    12    13    1
    37    55    54    2
    38    51    50    1
    39    50    49    1
    40    54    53    1
    41    33    32    2
    42    15    16    1
    43    28    29    2
    44    28    27    1
    45    30    27    1
    46    30    31    1
    47    49    48    1
    48    32    31    1
    49    32    34   am
    50    26    27    1
    51    26    17   am
    52    53    52    1
    53    53    56    1
    54    16    17    1
    55    16    19    1
    56    17    18    2
    57    48    45    1
    58    56    57    1
    59    19    20    1
    60    35    36    1
    61    47    46    2
    62    44    45    1
    63    44    37   am
    64    45    46    1
    65    57    58    1
    66    43    41   ar
    67    20    21   ar
    68    20    22   ar
    69    36    37    1
    70    36    39    1
    71    37    38    2
    72    21    23   ar
    73    59    58   ar
    74    41    40    1
    75    41    42   ar
    76    58    60   ar
    77    22    24   ar
    78    40    39    1
    79    23    25   ar
    80    24    25   ar
