@<TRIPOS>MOLECULE
tmp/1skqB00.pdb
 123 120 0 0 0
SMALL
GASTEIGER

@<TRIPOS>ATOM
      1  N         30.8380  -51.8530   35.9080 N.3    12  VAL12      -0.1231
      2  CA        32.2610  -51.6840   35.7410 C.3    12  VAL12       0.1692
      3  C         33.0060  -52.8530   36.4430 C.2    12  VAL12       0.2592
      4  O         32.6330  -53.2810   37.5510 O.2    12  VAL12      -0.2718
      5  CB        32.7270  -50.2900   36.3130 C.3    12  VAL12       0.0266
      6  CG1       32.3940  -50.1830   37.7980 C.3    12  VAL12       0.0020
      7  CG2       34.1860  -50.1060   36.0620 C.3    12  VAL12       0.0020
      8  N         34.0120  -53.3990   35.7540 N.am   13  ASP13      -0.1960
      9  CA        34.8090  -54.4960   36.2970 C.3    13  ASP13       0.1840
     10  C         34.1510  -55.8810   36.3700 C.2    13  ASP13       0.2622
     11  O         34.6980  -56.8140   36.9760 O.2    13  ASP13      -0.2715
     12  CB        35.2980  -54.1030   37.6850 C.3    13  ASP13       0.1450
     13  CG        36.7780  -53.9810   37.7430 C.2    13  ASP13       0.3671
     14  OD1       37.3200  -52.9620   37.2450 O.co2  13  ASP13      -0.2456
     15  OD2       37.4060  -54.9390   38.2780 O.co2  13  ASP13      -0.2456
     16  N         32.9810  -56.0490   35.7860 N.am   14  HIS14      -0.1959
     17  CA        32.4030  -57.3750   35.8410 C.3    14  HIS14       0.1787
     18  C         32.9830  -58.2770   34.7640 C.2    14  HIS14       0.2621
     19  O         32.6930  -59.4920   34.7430 O.2    14  HIS14      -0.2715
     20  CB        30.8720  -57.3390   35.7940 C.3    14  HIS14       0.0785
     21  CG        30.2440  -56.9520   37.1010 C.ar   14  HIS14       0.0821
     22  ND1       28.9420  -57.2630   37.4230 N.ar   14  HIS14      -0.2267
     23  CD2       30.7400  -56.2660   38.1590 C.ar   14  HIS14       0.1154
     24  CE1       28.6590  -56.7870   38.6250 C.ar   14  HIS14       0.1986
     25  NE2       29.7360  -56.1750   39.0920 N.ar   14  HIS14      -0.2212
     26  N         33.8130  -57.6940   33.8990 N.am   15  GLY15      -0.1940
     27  CA        34.4670  -58.4700   32.8430 C.3    15  GLY15       0.2014
     28  C         34.0960  -58.2610   31.3630 C.2    15  GLY15       0.2639
     29  O         34.3760  -59.1280   30.5180 O.2    15  GLY15      -0.2714
     30  N         33.5040  -57.1120   31.0320 N.am   16  LYS16      -0.1963
     31  CA        33.0990  -56.8460   29.6470 C.3    16  LYS16       0.1728
     32  C         34.2780  -56.8400   28.6650 C.2    16  LYS16       0.2617
     33  O         34.2670  -57.5370   27.6490 O.2    16  LYS16      -0.2715
     34  CB        32.3730  -55.4900   29.5650 C.3    16  LYS16       0.0311
     35  CG        31.1470  -55.3280   30.4640 C.3    16  LYS16       0.0038
     36  CD        30.5490  -53.9210   30.2570 C.3    16  LYS16       0.0206
     37  CE        31.4960  -52.8120   30.7600 C.3    16  LYS16       0.1093
     38  NZ        31.6220  -53.0540   32.2770 N.3    16  LYS16      -0.1314
     39  N         35.3110  -56.0590   28.9520 N.am   17  SER17      -0.1936
     40  CA        36.4280  -55.9890   28.0120 C.3    17  SER17       0.2055
     41  C         37.1730  -57.3210   27.9480 C.2    17  SER17       0.2643
     42  O         37.7310  -57.6670   26.8980 O.2    17  SER17      -0.2714
     43  CB        37.3740  -54.8260   28.3620 C.3    17  SER17       0.2130
     44  OG        38.4000  -55.2520   29.2440 O.3    17  SER17      -0.2179
     45  N         37.1360  -58.0960   29.0430 N.am   18  THR18      -0.1950
     46  CA        37.8190  -59.3890   29.0400 C.3    18  THR18       0.1897
     47  C         37.0800  -60.3720   28.1860 C.2    18  THR18       0.2313
     48  O         37.6840  -61.1330   27.4150 O.2    18  THR18      -0.2863
     49  CB        37.9560  -59.9970   30.4710 C.3    18  THR18       0.1794
     50  OG1       38.7140  -59.0910   31.2890 O.3    18  THR18      -0.2208
     51  CG2       38.6580  -61.3650   30.4130 C.3    18  THR18       0.0378
     52  N         47.4120  -63.7430   26.6130 N.3    52  PHE52      -0.1241
     53  CA        46.0900  -63.0950   26.5970 C.3    52  PHE52       0.1605
     54  C         46.1820  -61.6180   27.0660 C.2    52  PHE52       0.2264
     55  O         45.5950  -60.7010   26.4410 O.2    52  PHE52      -0.2867
     56  CB        45.1210  -63.8890   27.4920 C.3    52  PHE52       0.0534
     57  CG        43.6980  -63.3240   27.5410 C.ar   52  PHE52      -0.0203
     58  CD1       42.6490  -63.9670   26.8840 C.ar   52  PHE52      -0.0042
     59  CD2       43.4060  -62.1850   28.2950 C.ar   52  PHE52      -0.0042
     60  CE1       41.3110  -63.4900   26.9790 C.ar   52  PHE52      -0.0003
     61  CE2       42.0860  -61.7060   28.3970 C.ar   52  PHE52      -0.0003
     62  CZ        41.0310  -62.3740   27.7290 C.ar   52  PHE52      -0.0000
     63  N         42.9650  -53.0210   22.8750 N.3    60  LYS60      -0.1245
     64  CA        42.4690  -51.7580   23.4340 C.3    60  LYS60       0.1561
     65  C         43.1950  -50.5270   22.9120 C.2    60  LYS60       0.2260
     66  O         42.5700  -49.5380   22.5050 O.2    60  LYS60      -0.2867
     67  CB        42.5660  -51.7660   24.9530 C.3    60  LYS60       0.0271
     68  CG        41.7180  -52.8210   25.6000 C.3    60  LYS60       0.0035
     69  CD        41.8860  -52.7490   27.0950 C.3    60  LYS60       0.0206
     70  CE        41.0710  -53.8060   27.7880 C.3    60  LYS60       0.1093
     71  NZ        40.9260  -53.4520   29.2140 N.3    60  LYS60      -0.1314
     72  N         29.6660  -64.2580   34.7060 N.3   138  ASN138     -0.1225
     73  CA        31.1250  -64.2980   34.7480 C.3   138  ASN138      0.1785
     74  C         31.8470  -64.6220   36.0620 C.2   138  ASN138      0.2597
     75  O         31.2210  -64.7620   37.1240 O.2   138  ASN138     -0.2718
     76  CB        31.6560  -62.9470   34.2200 C.3   138  ASN138      0.1169
     77  CG        33.0740  -63.0330   33.6890 C.2   138  ASN138      0.2627
     78  OD1       33.4890  -64.0960   33.1650 O.2   138  ASN138     -0.2716
     79  ND2       33.8270  -61.9270   33.7770 N.am  138  ASN138     -0.0877
     80  N         33.1740  -64.7100   35.9650 N.am  139  LYS139     -0.1980
     81  CA        34.0200  -65.0230   37.1200 C.3   139  LYS139      0.1596
     82  C         33.4710  -66.2390   37.8630 C.2   139  LYS139      0.2287
     83  O         33.4400  -66.2570   39.0830 O.2   139  LYS139     -0.2864
     84  CB        34.1210  -63.8230   38.0800 C.3   139  LYS139      0.0298
     85  CG        34.8100  -62.6080   37.4410 C.3   139  LYS139      0.0038
     86  CD        34.7960  -61.3570   38.2920 C.3   139  LYS139      0.0206
     87  CE        35.2960  -60.1640   37.4740 C.3   139  LYS139      0.1093
     88  NZ        35.5440  -58.9640   38.3180 N.3   139  LYS139     -0.1314
     89  N         34.9050  -68.9330   38.1830 N.3   141  ASP141     -0.1225
     90  CA        36.0750  -69.5100   38.8420 C.3   141  ASP141      0.1805
     91  C         36.3390  -68.8030   40.1870 C.2   141  ASP141      0.2597
     92  O         37.1780  -69.2510   40.9750 O.2   141  ASP141     -0.2718
     93  CB        37.3070  -69.3310   37.9530 C.3   141  ASP141      0.1424
     94  CG        37.5070  -67.8800   37.5370 C.2   141  ASP141      0.3668
     95  OD1       36.5690  -67.3300   36.9290 O.co2 141  ASP141     -0.2456
     96  OD2       38.5730  -67.2900   37.8190 O.co2 141  ASP141     -0.2456
     97  N         35.6420  -67.6950   40.4420 N.am  142  LEU142     -0.1979
     98  CA        35.8350  -66.9430   41.6820 C.3   142  LEU142      0.1596
     99  C         34.7000  -67.0640   42.7130 C.2   142  LEU142      0.2287
    100  O         34.6480  -66.2930   43.6680 O.2   142  LEU142     -0.2864
    101  CB        36.0750  -65.4620   41.3740 C.3   142  LEU142      0.0297
    102  CG        37.2150  -65.0480   40.4420 C.3   142  LEU142      0.0022
    103  CD1       37.3450  -63.5280   40.4700 C.3   142  LEU142      0.0001
    104  CD2       38.5330  -65.6850   40.8790 C.3   142  LEU142      0.0001
    105  N         33.6670  -68.1340   32.2040 N.3   179  VAL179     -0.1231
    106  CA        34.9080  -67.5870   32.7020 C.3   179  VAL179      0.1692
    107  C         35.6060  -66.9220   31.5110 C.2   179  VAL179      0.2592
    108  O         36.2740  -67.5870   30.6950 O.2   179  VAL179     -0.2718
    109  CB        35.8450  -68.6610   33.3050 C.3   179  VAL179      0.0266
    110  CG1       37.1750  -67.9990   33.6720 C.3   179  VAL179      0.0020
    111  CG2       35.1620  -69.2970   34.5290 C.3   179  VAL179      0.0020
    112  N         35.4560  -65.6050   31.4260 N.am  180  ALA180     -0.1966
    113  CA        36.0310  -64.8450   30.3310 C.3   180  ALA180      0.1713
    114  C         37.5150  -65.0830   29.9660 C.2   180  ALA180      0.2458
    115  O         37.8220  -65.4070   28.8220 O.2   180  ALA180     -0.2730
    116  CB        35.7950  -63.3590   30.5720 C.3   180  ALA180      0.0333
    117  N         38.4500  -64.9460   30.9250 N.am  181  PRO181     -0.2727
    118  CA        39.8770  -65.1430   30.6360 C.3   181  PRO181      0.1402
    119  C         40.2840  -66.4490   29.9420 C.2   181  PRO181      0.2269
    120  O         41.2010  -66.4630   29.1120 O.2   181  PRO181     -0.2865
    121  CB        40.5340  -65.0140   32.0210 C.3   181  PRO181      0.0296
    122  CG        39.5860  -64.1350   32.7510 C.3   181  PRO181      0.0237
    123  CD        38.2570  -64.7070   32.3600 C.3   181  PRO181      0.0939
@<TRIPOS>BOND
     1    66    65    2
     2    63    64    1
     3    65    64    1
     4    64    67    1
     5    67    68    1
     6    68    69    1
     7    55    54    2
     8    53    52    1
     9    53    54    1
    10    53    56    1
    11    58    60   ar
    12    58    57   ar
    13    42    41    2
    14    60    62   ar
    15    69    70    1
    16    48    47    2
    17    56    57    1
    18    57    59   ar
    19    33    32    2
    20    62    61   ar
    21    70    71    1
    22    41    40    1
    23    41    45   am
    24    40    43    1
    25    40    39    1
    26    47    46    1
    27    59    61   ar
    28    43    44    1
    29    32    39   am
    30    32    31    1
    31   115   114    2
    32    46    45    1
    33    46    49    1
    34   120   119    2
    35    34    31    1
    36    34    35    1
    37    31    30    1
    38   119   118    1
    39   114   113    1
    40   114   117   am
    41    36    35    1
    42    36    37    1
    43   113   116    1
    44   113   112    1
    45    51    49    1
    46    49    50    1
    47    29    28    2
    48   118   117    1
    49   118   121    1
    50   108   107    2
    51    37    38    1
    52   117   123    1
    53    30    28   am
    54    28    27    1
    55   112   107   am
    56   107   106    1
    57   121   122    1
    58   105   106    1
    59   123   122    1
    60   106   109    1
    61    27    26    1
    62    78    77    2
    63   109   110    1
    64   109   111    1
    65    77    79   am
    66    77    76    1
    67    26    18   am
    68    76    73    1
    69    72    73    1
    70    19    18    2
    71    73    74    1
    72    18    17    1
    73     2     1    1
    74     2     5    1
    75     2     3    1
    76     8     9    1
    77     8     3   am
    78    16    17    1
    79    16    10   am
    80    20    17    1
    81    20    21    1
    82    80    74   am
    83    80    81    1
    84    74    75    2
    85     7     5    1
    86     9    10    1
    87     9    12    1
    88     5     6    1
    89    10    11    2
    90     3     4    2
    91    95    94   ar
    92    21    22   ar
    93    21    23   ar
    94    81    82    1
    95    81    84    1
    96    14    13   ar
    97    22    24   ar
    98    85    84    1
    99    85    86    1
   100    87    86    1
   101    87    88    1
   102    94    96   ar
   103    94    93    1
   104    12    13    1
   105    13    15   ar
   106    82    83    2
   107    93    90    1
   108    23    25   ar
   109    89    90    1
   110    24    25   ar
   111    90    91    1
   112    91    97   am
   113    91    92    2
   114   102   103    1
   115   102   104    1
   116   102   101    1
   117    97    98    1
   118   101    98    1
   119    98    99    1
   120    99   100    2
