@<TRIPOS>MOLECULE
tmp/1skrC00.pdb
 159 152 0 0 0
SMALL
GASTEIGER

@<TRIPOS>ATOM
      1  N         54.2470   21.1670    5.6510 N.3   405  ARG405     -0.1245
      2  CA        54.3050   22.0460    4.4890 C.3   405  ARG405      0.1563
      3  C         55.6870   22.6870    4.5630 C.2   405  ARG405      0.2260
      4  O         56.3530   22.6160    5.5990 O.2   405  ARG405     -0.2867
      5  CB        53.2590   23.1710    4.5800 C.3   405  ARG405      0.0307
      6  CG        51.8740   22.9000    3.9770 C.3   405  ARG405      0.0489
      7  CD        51.0820   24.2230    3.8860 C.3   405  ARG405      0.2205
      8  NE        49.7670   24.0960    3.2570 N.pl3 405  ARG405     -0.0865
      9  CZ        49.0370   25.1340    2.8440 C.cat 405  ARG405      0.5346
     10  NH1       49.5010   26.3650    2.9950 N.pl3 405  ARG405      0.1354
     11  NH2       47.8440   24.9530    2.2760 N.pl3 405  ARG405      0.1354
     12  N         48.8920   22.4500  -10.8760 N.3   451  ASP451     -0.1225
     13  CA        48.3090   22.6520   -9.5610 C.3   451  ASP451      0.1805
     14  C         47.3340   21.5260   -9.1800 C.2   451  ASP451      0.2598
     15  O         46.4430   21.1690   -9.9560 O.2   451  ASP451     -0.2718
     16  CB        47.5750   23.9920   -9.5740 C.3   451  ASP451      0.1424
     17  CG        47.2770   24.5020   -8.1930 C.2   451  ASP451      0.3668
     18  OD1       47.1420   23.6780   -7.2740 O.co2 451  ASP451     -0.2456
     19  OD2       47.1670   25.7310   -8.0260 O.co2 451  ASP451     -0.2456
     20  N         47.4980   20.9730   -7.9840 N.am  452  ALA452     -0.1966
     21  CA        46.6080   19.9050   -7.5210 C.3   452  ALA452      0.1728
     22  C         45.1780   20.4450   -7.3900 C.2   452  ALA452      0.2617
     23  O         44.9540   21.4840   -6.7940 O.2   452  ALA452     -0.2715
     24  CB        47.0910   19.3630   -6.1750 C.3   452  ALA452      0.0334
     25  N         44.2110   19.7220   -7.9320 N.am  453  SER453     -0.1936
     26  CA        42.8140   20.1520   -7.8910 C.3   453  SER453      0.2055
     27  C         42.1000   19.8570   -6.5620 C.2   453  SER453      0.2644
     28  O         42.1510   18.7330   -6.0570 O.2   453  SER453     -0.2714
     29  CB        42.0620   19.4900   -9.0460 C.3   453  SER453      0.2130
     30  OG        42.8240   19.5750  -10.2450 O.3   453  SER453     -0.2179
     31  N         41.4320   20.8780   -6.0210 N.am  454  GLY454     -0.1939
     32  CA        40.6970   20.7480   -4.7720 C.3   454  GLY454      0.2014
     33  C         41.4030   19.8630   -3.7660 C.2   454  GLY454      0.2639
     34  O         40.7740   19.0600   -3.0700 O.2   454  GLY454     -0.2714
     35  N         42.7190   20.0370   -3.6810 N.am  455  LEU455     -0.1963
     36  CA        43.5680   19.2340   -2.8110 C.3   455  LEU455      0.1728
     37  C         43.0340   18.8670   -1.4370 C.2   455  LEU455      0.2616
     38  O         42.7190   17.7080   -1.1820 O.2   455  LEU455     -0.2715
     39  CB        44.9340   19.9010   -2.6430 C.3   455  LEU455      0.0311
     40  CG        45.8830   19.1560   -1.6940 C.3   455  LEU455      0.0022
     41  CD1       46.1800   17.7540   -2.2400 C.3   455  LEU455      0.0001
     42  CD2       47.1670   19.9540   -1.5340 C.3   455  LEU455      0.0001
     43  N         42.9370   19.8470   -0.5460 N.am  456  GLU456     -0.1977
     44  CA        42.4980   19.5580    0.8060 C.3   456  GLU456      0.1602
     45  C         41.0530   19.1030    0.9730 C.2   456  GLU456      0.2287
     46  O         40.7130   18.5200    1.9990 O.2   456  GLU456     -0.2864
     47  CB        42.8470   20.7370    1.7330 C.3   456  GLU456      0.0415
     48  CG        44.2910   20.6390    2.2600 C.3   456  GLU456      0.1163
     49  CD        44.7890   21.8820    3.0030 C.2   456  GLU456      0.3649
     50  OE1       44.0570   22.4220    3.8610 O.co2 456  GLU456     -0.2457
     51  OE2       45.9330   22.3090    2.7390 O.co2 456  GLU456     -0.2457
     52  N         33.7000   20.8290  -11.2390 N.3   480  ASP480     -0.1239
     53  CA        34.6260   21.4790  -10.3160 C.3   480  ASP480      0.1674
     54  C         33.9350   21.7290   -8.9790 C.2   480  ASP480      0.2266
     55  O         32.9110   22.4130   -8.9210 O.2   480  ASP480     -0.2867
     56  CB        35.1150   22.8150  -10.8790 C.3   480  ASP480      0.1410
     57  CG        36.1640   23.4610   -9.9950 C.2   480  ASP480      0.3668
     58  OD1       37.2730   22.8950   -9.9010 O.co2 480  ASP480     -0.2456
     59  OD2       35.8770   24.5160   -9.3830 O.co2 480  ASP480     -0.2456
     60  N         34.7920   23.6370   -6.3650 N.3   482  HIS482     -0.1241
     61  CA        34.7450   25.0340   -5.9150 C.3   482  HIS482      0.1621
     62  C         33.7270   25.8540   -6.6880 C.2   482  HIS482      0.2264
     63  O         33.0360   26.7020   -6.1170 O.2   482  HIS482     -0.2867
     64  CB        36.1250   25.6890   -6.0330 C.3   482  HIS482      0.0745
     65  CG        37.1360   25.1150   -5.0960 C.ar  482  HIS482      0.0817
     66  ND1       36.9760   25.1360   -3.7260 N.ar  482  HIS482     -0.2268
     67  CD2       38.3020   24.4720   -5.3280 C.ar  482  HIS482      0.1154
     68  CE1       37.9980   24.5290   -3.1560 C.ar  482  HIS482      0.1986
     69  NE2       38.8170   24.1160   -4.1060 N.ar  482  HIS482     -0.2212
     70  N         35.1330   32.3040   -7.8900 N.3   494  ARG494     -0.1245
     71  CA        35.5630   30.9760   -7.4940 C.3   494  ARG494      0.1563
     72  C         36.5500   31.0990   -6.3300 C.2   494  ARG494      0.2260
     73  O         36.5710   30.2530   -5.4330 O.2   494  ARG494     -0.2867
     74  CB        36.2170   30.2630   -8.6820 C.3   494  ARG494      0.0307
     75  CG        36.6250   28.8200   -8.4100 C.3   494  ARG494      0.0489
     76  CD        37.0180   28.1120   -9.7030 C.3   494  ARG494      0.2205
     77  NE        37.5000   26.7550   -9.4640 N.pl3 494  ARG494     -0.0865
     78  CZ        38.6840   26.4610   -8.9330 C.cat 494  ARG494      0.5346
     79  NH1       39.5170   27.4330   -8.5890 N.pl3 494  ARG494      0.1354
     80  NH2       39.0280   25.1950   -8.7290 N.pl3 494  ARG494      0.1354
     81  N         36.5190   29.3460   -2.5210 N.3   498  LYS498     -0.1231
     82  CA        37.6090   28.5690   -1.9390 C.3   498  LYS498      0.1693
     83  C         37.9070   29.0410   -0.5230 C.2   498  LYS498      0.2592
     84  O         37.9800   28.2240    0.3990 O.2   498  LYS498     -0.2718
     85  CB        38.8640   28.6680   -2.8160 C.3   498  LYS498      0.0285
     86  CG        38.7360   27.9170   -4.1260 C.3   498  LYS498      0.0035
     87  CD        39.7860   28.3290   -5.1540 C.3   498  LYS498      0.0206
     88  CE        41.2000   28.0980   -4.6640 C.3   498  LYS498      0.1093
     89  NZ        42.1760   28.2460   -5.7720 N.3   498  LYS498     -0.1314
     90  N         38.0780   30.3520   -0.3440 N.am  499  THR499     -0.1953
     91  CA        38.3440   30.8760    0.9930 C.3   499  THR499      0.1897
     92  C         37.1250   30.6630    1.9050 C.2   499  THR499      0.2313
     93  O         37.2560   30.5780    3.1280 O.2   499  THR499     -0.2863
     94  CB        38.7720   32.3830    0.9640 C.3   499  THR499      0.1794
     95  OG1       38.2040   33.0650    2.0870 O.3   499  THR499     -0.2208
     96  CG2       38.3500   33.0550   -0.3090 C.3   499  THR499      0.0378
     97  N         37.0360   26.5650    2.8670 N.3   502  TYR502     -0.1227
     98  CA        38.0940   26.1980    3.7950 C.3   502  TYR502      0.1736
     99  C         37.9190   26.8650    5.1540 C.2   502  TYR502      0.2596
    100  O         38.1510   26.2380    6.1830 O.2   502  TYR502     -0.2718
    101  CB        39.4680   26.5060    3.1980 C.3   502  TYR502      0.0548
    102  CG        39.8630   25.5120    2.1340 C.ar  502  TYR502     -0.0200
    103  CD1       39.8450   24.1390    2.4000 C.ar  502  TYR502     -0.0009
    104  CD2       40.2230   25.9300    0.8510 C.ar  502  TYR502     -0.0009
    105  CE1       40.1700   23.2050    1.4120 C.ar  502  TYR502      0.0417
    106  CE2       40.5510   25.0020   -0.1450 C.ar  502  TYR502      0.0417
    107  CZ        40.5230   23.6440    0.1450 C.ar  502  TYR502      0.1957
    108  OH        40.8630   22.7240   -0.8230 O.3   502  TYR502     -0.2866
    109  N         37.5060   28.1290    5.1640 N.am  503  GLY503     -0.1957
    110  CA        37.2900   28.8000    6.4330 C.3   503  GLY503      0.1869
    111  C         36.2530   28.0040    7.2060 C.2   503  GLY503      0.2309
    112  O         36.4050   27.7260    8.4000 O.2   503  GLY503     -0.2863
    113  N         37.4500   24.6210    8.4740 N.3   506  TYR506     -0.1241
    114  CA        38.3770   24.7520    9.5900 C.3   506  TYR506      0.1605
    115  C         37.9180   25.5820   10.7940 C.2   506  TYR506      0.2264
    116  O         38.7300   26.2170   11.4690 O.2   506  TYR506     -0.2867
    117  CB        39.7370   25.2440    9.0760 C.3   506  TYR506      0.0534
    118  CG        40.3430   24.3000    8.0570 C.ar  506  TYR506     -0.0201
    119  CD1       40.2590   22.9160    8.2290 C.ar  506  TYR506     -0.0009
    120  CD2       40.9980   24.7840    6.9240 C.ar  506  TYR506     -0.0009
    121  CE1       40.8120   22.0360    7.2970 C.ar  506  TYR506      0.0417
    122  CE2       41.5580   23.9140    5.9860 C.ar  506  TYR506      0.0417
    123  CZ        41.4610   22.5420    6.1790 C.ar  506  TYR506      0.1957
    124  OH        42.0120   21.6780    5.2620 O.3   506  TYR506     -0.2866
    125  N         42.4220   20.6890   10.6480 N.3   576  ASN576     -0.1240
    126  CA        43.2880   21.3890    9.7090 C.3   576  ASN576      0.1653
    127  C         44.6540   20.7080    9.6830 C.2   576  ASN576      0.2266
    128  O         45.2440   20.5050    8.6190 O.2   576  ASN576     -0.2867
    129  CB        43.4440   22.8570   10.1040 C.3   576  ASN576      0.1155
    130  CG        44.4230   23.5930    9.2160 C.2   576  ASN576      0.2627
    131  OD1       45.5780   23.7920    9.5820 O.2   576  ASN576     -0.2716
    132  ND2       43.9660   23.9870    8.0280 N.am  576  ASN576     -0.0877
    133  N         45.8170   19.4790    6.1340 N.3   580  GLN580     -0.1245
    134  CA        46.9020   20.2580    5.5430 C.3   580  GLN580      0.1566
    135  C         48.1580   19.3820    5.4610 C.2   580  GLN580      0.2260
    136  O         48.9170   19.4580    4.4910 O.2   580  GLN580     -0.2867
    137  CB        47.1980   21.5140    6.3760 C.3   580  GLN580      0.0367
    138  CG        48.1120   22.5110    5.6760 C.3   580  GLN580      0.0905
    139  CD        48.5220   23.6800    6.5640 C.2   580  GLN580      0.2608
    140  OE1       49.5750   23.6460    7.2110 O.2   580  GLN580     -0.2717
    141  NE2       47.6830   24.7150    6.6100 N.am  580  GLN580     -0.0878
    142  N         53.2980   25.1810   -2.3330 N.3   618  HIS618     -0.1226
    143  CA        52.4160   24.2450   -1.6210 C.3   618  HIS618      0.1752
    144  C         51.8670   23.1130   -2.4900 C.2   618  HIS618      0.2596
    145  O         52.3550   21.9850   -2.4050 O.2   618  HIS618     -0.2718
    146  CB        51.2910   25.0170   -0.9310 C.3   618  HIS618      0.0759
    147  CG        51.7970   26.1040   -0.0340 C.ar  618  HIS618      0.0818
    148  ND1       52.5660   25.8490    1.0810 N.ar  618  HIS618     -0.2268
    149  CD2       51.7260   27.4520   -0.1390 C.ar  618  HIS618      0.1154
    150  CE1       52.9520   26.9910    1.6200 C.ar  618  HIS618      0.1986
    151  NE2       52.4560   27.9800    0.8980 N.ar  618  HIS618     -0.2212
    152  N         50.8690   23.3870   -3.3240 N.am  619  ASP619     -0.1974
    153  CA        50.3390   22.3270   -4.1790 C.3   619  ASP619      0.1709
    154  C         50.4790   22.7240   -5.6470 C.2   619  ASP619      0.2293
    155  O         49.7450   22.2570   -6.5130 O.2   619  ASP619     -0.2864
    156  CB        48.8790   22.0410   -3.8260 C.3   619  ASP619      0.1436
    157  CG        47.9200   23.1090   -4.3350 C.2   619  ASP619      0.3671
    158  OD1       48.3150   24.2810   -4.4910 O.co2 619  ASP619     -0.2456
    159  OD2       46.7440   22.7640   -4.5560 O.co2 619  ASP619     -0.2456
@<TRIPOS>BOND
     1    52    53    1
     2    56    53    1
     3    56    57    1
     4    12    13    1
     5    53    54    1
     6    30    29    1
     7    57    58   ar
     8    57    59   ar
     9    15    14    2
    10    76    77    1
    11    76    75    1
    12    16    13    1
    13    16    17    1
    14    13    14    1
    15    77    78    2
    16    14    20   am
    17    29    26    1
    18    54    55    2
    19    78    80    1
    20    78    79    1
    21    74    75    1
    22    74    71    1
    23    17    19   ar
    24    17    18   ar
    25    20    21    1
    26    25    26    1
    27    25    22   am
    28    26    27    1
    29    70    71    1
    30    21    22    1
    31    21    24    1
    32    71    72    1
    33    22    23    2
    34    62    63    2
    35    62    61    1
    36    27    28    2
    37    27    31   am
    38   155   154    2
    39    60    61    1
    40    72    73    2
    41    64    61    1
    42    64    65    1
    43    31    32    1
    44    89    88    1
    45   154   153    1
    46    67    65   ar
    47    67    69   ar
    48    87    88    1
    49    87    86    1
    50    65    66   ar
    51    32    33    1
    52   159   157   ar
    53   158   157   ar
    54   157   156    1
    55   153   156    1
    56   153   152    1
    57    86    85    1
    58    69    68   ar
    59    33    35   am
    60    33    34    2
    61    66    68   ar
    62    35    36    1
    63   152   144   am
    64    85    82    1
    65    36    39    1
    66    36    37    1
    67    39    40    1
    68    81    82    1
    69   144   145    2
    70   144   143    1
    71   142   143    1
    72    41    40    1
    73    82    83    1
    74    40    42    1
    75   143   146    1
    76    37    38    2
    77    37    43   am
    78   146   147    1
    79   108   107    1
    80    43    44    1
    81    83    90   am
    82    83    84    2
    83    90    91    1
    84    96    94    1
    85   106   107   ar
    86   106   104   ar
    87   149   147   ar
    88   149   151   ar
    89   147   148   ar
    90   107   105   ar
    91    44    45    1
    92    44    47    1
    93   104   102   ar
    94   151   150   ar
    95    94    91    1
    96    94    95    1
    97    45    46    2
    98    91    92    1
    99   148   150   ar
   100   105   103   ar
   101    47    48    1
   102    92    93    2
   103   102   103   ar
   104   102   101    1
   105    48    49    1
   106    11     9    1
   107    51    49   ar
   108     9    10    1
   109     9     8    2
   110    97    98    1
   111    49    50   ar
   112   101    98    1
   113     8     7    1
   114    98    99    1
   115     7     6    1
   116     6     5    1
   117     2     3    1
   118     2     5    1
   119     2     1    1
   120   136   135    2
   121     3     4    2
   122    99   109   am
   123    99   100    2
   124   109   110    1
   125   124   123    1
   126   135   134    1
   127   134   133    1
   128   134   137    1
   129   138   137    1
   130   138   139    1
   131   122   123   ar
   132   122   120   ar
   133   123   121   ar
   134   110   111    1
   135   139   141   am
   136   139   140    2
   137   120   118   ar
   138   111   112    2
   139   121   119   ar
   140   132   130   am
   141   118   119   ar
   142   118   117    1
   143   113   114    1
   144   128   127    2
   145   117   114    1
   146   130   131    2
   147   130   129    1
   148   114   115    1
   149   127   126    1
   150   126   129    1
   151   126   125    1
   152   115   116    2
