@<TRIPOS>MOLECULE
tmp/1skxA00.pdb
 259 248 0 0 0
SMALL
GASTEIGER

@<TRIPOS>ATOM
      1  N         20.0570   77.0750   -6.3350 N.3    36  LYS36      -0.1231
      2  CA        20.8040   75.9670   -6.9230 C.3    36  LYS36       0.1693
      3  C         19.8400   74.8520   -7.3590 C.2    36  LYS36       0.2591
      4  O         19.9670   73.6960   -6.9400 O.2    36  LYS36      -0.2718
      5  CB        21.8140   75.4170   -5.9080 C.3    36  LYS36       0.0285
      6  CG        22.8870   74.5230   -6.5230 C.3    36  LYS36       0.0035
      7  CD        23.4730   73.5200   -5.5210 C.3    36  LYS36       0.0206
      8  CE        24.2470   74.1850   -4.3760 C.3    36  LYS36       0.1093
      9  NZ        25.5290   74.8420   -4.7820 N.3    36  LYS36      -0.1314
     10  N         18.8820   75.2100   -8.2100 N.am   37  VAL37      -0.1980
     11  CA        17.8950   74.2520   -8.6910 C.3    37  VAL37       0.1595
     12  C         17.6740   74.3590  -10.2010 C.2    37  VAL37       0.2287
     13  O         17.4230   75.4410  -10.7280 O.2    37  VAL37      -0.2864
     14  CB        16.5430   74.4630   -7.9930 C.3    37  VAL37       0.0276
     15  CG1       15.8100   73.1390   -7.8770 C.3    37  VAL37       0.0022
     16  CG2       16.7560   75.0790   -6.6350 C.3    37  VAL37       0.0022
     17  N         13.8370   82.9120   -9.0220 N.3    58  LEU58      -0.1231
     18  CA        12.9400   81.7830   -8.8640 C.3    58  LEU58       0.1693
     19  C         11.8480   81.9810   -7.8320 C.2    58  LEU58       0.2591
     20  O         10.9570   81.1400   -7.7170 O.2    58  LEU58      -0.2718
     21  CB        13.7340   80.5300   -8.5230 C.3    58  LEU58       0.0284
     22  CG        14.4370   79.8730   -9.7080 C.3    58  LEU58       0.0019
     23  CD1       15.3160   78.7550   -9.2030 C.3    58  LEU58       0.0001
     24  CD2       13.4050   79.3480  -10.7040 C.3    58  LEU58       0.0001
     25  N         11.8950   83.0830   -7.0880 N.am   59  LEU59      -0.1980
     26  CA        10.8820   83.3280   -6.0670 C.3    59  LEU59       0.1596
     27  C          9.4660   83.4130   -6.6360 C.2    59  LEU59       0.2287
     28  O          8.5410   82.7950   -6.1080 O.2    59  LEU59      -0.2864
     29  CB        11.1890   84.6040   -5.2890 C.3    59  LEU59       0.0297
     30  CG        12.6160   84.7980   -4.7740 C.3    59  LEU59       0.0022
     31  CD1       12.5710   85.7500   -3.5860 C.3    59  LEU59       0.0001
     32  CD2       13.2380   83.4640   -4.3660 C.3    59  LEU59       0.0001
     33  N          8.3920   79.8780   -7.7280 N.3    62  MET62      -0.1230
     34  CA         8.2890   79.0670   -6.5240 C.3    62  MET62       0.1702
     35  C          7.0620   79.4710   -5.6960 C.2    62  MET62       0.2592
     36  O          6.4540   78.6260   -5.0370 O.2    62  MET62      -0.2718
     37  CB         9.5850   79.1940   -5.7230 C.3    62  MET62       0.0401
     38  CG        10.0410   77.8990   -5.0960 C.3    62  MET62       0.0596
     39  SD        10.1500   76.5730   -6.3100 S.3    62  MET62      -0.1393
     40  CE        11.6310   77.0420   -7.1540 C.3    62  MET62       0.0692
     41  N          6.6950   80.7550   -5.7520 N.am   63  ALA63      -0.1980
     42  CA         5.5190   81.2880   -5.0480 C.3    63  ALA63       0.1597
     43  C          4.2360   80.7690   -5.7230 C.2    63  ALA63       0.2287
     44  O          3.2100   80.5810   -5.0640 O.2    63  ALA63      -0.2864
     45  CB         5.5370   82.8330   -5.0570 C.3    63  ALA63       0.0319
     46  N          4.0440   77.8070   -7.3370 N.3    65  MET65      -0.1230
     47  CA         4.0030   76.3780   -7.0370 C.3    65  MET65       0.1702
     48  C          3.4420   76.2070   -5.6280 C.2    65  MET65       0.2593
     49  O          2.6300   75.3280   -5.3640 O.2    65  MET65      -0.2718
     50  CB         5.4000   75.7710   -7.0660 C.3    65  MET65       0.0401
     51  CG         5.4490   74.3140   -6.6290 C.3    65  MET65       0.0596
     52  SD         4.7690   73.2360   -7.9060 S.3    65  MET65      -0.1393
     53  CE         3.0750   73.2590   -7.5110 C.3    65  MET65       0.0692
     54  N          3.8930   77.0590   -4.7180 N.am   66  SER66      -0.1952
     55  CA         3.4410   77.0010   -3.3420 C.3    66  SER66       0.1924
     56  C          1.9390   77.1840   -3.2210 C.2    66  SER66       0.2314
     57  O          1.2640   76.3910   -2.5640 O.2    66  SER66      -0.2863
     58  CB         4.1450   78.0710   -2.5160 C.3    66  SER66       0.2116
     59  OG         5.5270   77.7930   -2.4190 O.3    66  SER66      -0.2180
     60  N          0.1250   74.2310   -4.4650 N.3    69  MET69      -0.1230
     61  CA         0.2710   73.1440   -3.5170 C.3    69  MET69       0.1702
     62  C         -0.5590   73.3660   -2.2660 C.2    69  MET69       0.2592
     63  O         -1.2080   72.4510   -1.7590 O.2    69  MET69      -0.2718
     64  CB         1.7470   72.9770   -3.1690 C.3    69  MET69       0.0401
     65  CG         2.5040   72.2430   -4.2480 C.3    69  MET69       0.0596
     66  SD         1.8170   70.6140   -4.6270 S.3    69  MET69      -0.1393
     67  CE         2.4050   69.7120   -3.2210 C.3    69  MET69       0.0692
     68  N         -0.5350   74.6050   -1.7940 N.am   70  PHE70      -0.1976
     69  CA        -1.2590   75.0050   -0.6060 C.3    70  PHE70       0.1639
     70  C         -2.7440   74.8050   -0.8130 C.2    70  PHE70       0.2290
     71  O         -3.4440   74.3350    0.0760 O.2    70  PHE70      -0.2864
     72  CB        -0.9550   76.4730   -0.2980 C.3    70  PHE70       0.0560
     73  CG         0.3720   76.6990    0.3950 C.ar   70  PHE70      -0.0200
     74  CD1        1.0530   77.9050    0.2390 C.ar   70  PHE70      -0.0042
     75  CD2        0.9050   75.7390    1.2540 C.ar   70  PHE70      -0.0042
     76  CE1        2.2430   78.1590    0.9310 C.ar   70  PHE70      -0.0003
     77  CE2        2.0970   75.9820    1.9520 C.ar   70  PHE70      -0.0003
     78  CZ         2.7650   77.1940    1.7900 C.ar   70  PHE70      -0.0000
     79  N          2.7970   74.1680    5.4530 N.3   100  PHE100     -0.1241
     80  CA         4.1030   73.8350    4.9010 C.3   100  PHE100      0.1605
     81  C          4.4370   72.3340    5.0230 C.2   100  PHE100      0.2264
     82  O          4.8640   71.7060    4.0570 O.2   100  PHE100     -0.2867
     83  CB         5.1700   74.6600    5.6120 C.3   100  PHE100      0.0534
     84  CG         6.5610   74.2890    5.2430 C.ar  100  PHE100     -0.0203
     85  CD1        7.0850   74.6660    4.0220 C.ar  100  PHE100     -0.0042
     86  CD2        7.3470   73.5630    6.1230 C.ar  100  PHE100     -0.0042
     87  CE1        8.3860   74.3270    3.6720 C.ar  100  PHE100     -0.0003
     88  CE2        8.6450   73.2160    5.7950 C.ar  100  PHE100     -0.0003
     89  CZ         9.1740   73.5990    4.5610 C.ar  100  PHE100     -0.0000
     90  N          2.7760   70.0770    2.5880 N.3   103  CYS103     -0.1221
     91  CA         3.3140   70.2850    1.2430 C.3   103  CYS103      0.1808
     92  C          4.5770   69.4850    1.0600 C.2   103  CYS103      0.2601
     93  O          4.8100   68.9410   -0.0100 O.2   103  CYS103     -0.2717
     94  CB         3.6440   71.7570    0.9870 C.3   103  CYS103      0.0970
     95  SG         2.2320   72.7690    0.5000 S.3   103  CYS103     -0.0800
     96  N          5.3970   69.4320    2.1070 N.am  104  GLN104     -0.1979
     97  CA         6.6530   68.6870    2.0810 C.3   104  GLN104      0.1601
     98  C          6.4030   67.1920    2.0210 C.2   104  GLN104      0.2287
     99  O          7.0660   66.4690    1.2740 O.2   104  GLN104     -0.2864
    100  CB         7.4900   69.0100    3.3140 C.3   104  GLN104      0.0394
    101  CG         8.0020   70.4290    3.3190 C.3   104  GLN104      0.0908
    102  CD         8.6750   70.7830    2.0160 C.2   104  GLN104      0.2608
    103  OE1        9.7050   70.2030    1.6570 O.2   104  GLN104     -0.2717
    104  NE2        8.0930   71.7280    1.2880 N.am  104  GLN104     -0.0878
    105  N          5.4050   66.5890   -1.4900 N.3   107  PHE107     -0.1241
    106  CA         6.5030   66.7230   -2.4420 C.3   107  PHE107      0.1605
    107  C          7.4150   65.5050   -2.3810 C.2   107  PHE107      0.2264
    108  O          8.1000   65.1760   -3.3550 O.2   107  PHE107     -0.2867
    109  CB         7.3270   67.9990   -2.1530 C.3   107  PHE107      0.0534
    110  CG         6.9300   69.1780   -2.9860 C.ar  107  PHE107     -0.0203
    111  CD1        6.3420   70.3020   -2.4010 C.ar  107  PHE107     -0.0042
    112  CD2        7.1010   69.1550   -4.3630 C.ar  107  PHE107     -0.0042
    113  CE1        5.9270   71.3860   -3.1870 C.ar  107  PHE107     -0.0003
    114  CE2        6.6910   70.2360   -5.1600 C.ar  107  PHE107     -0.0003
    115  CZ         6.1040   71.3480   -4.5710 C.ar  107  PHE107     -0.0000
    116  N         12.5490   66.4510   -8.1590 N.3   118  TRP118     -0.1241
    117  CA        11.1310   66.4060   -7.8720 C.3   118  TRP118      0.1605
    118  C         10.3800   66.3760   -9.1980 C.2   118  TRP118      0.2264
    119  O         10.2440   67.3910   -9.8620 O.2   118  TRP118     -0.2867
    120  CB        10.7330   67.6360   -7.0540 C.3   118  TRP118      0.0550
    121  CG        11.1080   67.5020   -5.6340 C.ar  118  TRP118      0.0003
    122  CD1       10.3750   66.9170   -4.6420 C.ar  118  TRP118      0.0946
    123  CD2       12.3470   67.8900   -5.0350 C.ar  118  TRP118      0.0152
    124  NE1       11.0800   66.9120   -3.4650 N.ar  118  TRP118     -0.2442
    125  CE2       12.2940   67.5020   -3.6750 C.ar  118  TRP118      0.0810
    126  CE3       13.5090   68.5270   -5.5160 C.ar  118  TRP118      0.0012
    127  CZ2       13.3520   67.7280   -2.7890 C.ar  118  TRP118      0.0191
    128  CZ3       14.5610   68.7510   -4.6340 C.ar  118  TRP118      0.0001
    129  CH2       14.4730   68.3510   -3.2830 C.ar  118  TRP118      0.0015
    130  N         12.2830   69.5720  -10.9050 N.3   125  TYR125     -0.1241
    131  CA        13.2090   70.3620  -10.0950 C.3   125  TYR125      0.1605
    132  C         14.4130   69.5270   -9.7020 C.2   125  TYR125      0.2264
    133  O         14.3400   68.7210   -8.7840 O.2   125  TYR125     -0.2867
    134  CB        12.5320   70.8640   -8.8250 C.3   125  TYR125      0.0534
    135  CG        11.3330   71.7220   -9.0690 C.ar  125  TYR125     -0.0201
    136  CD1       10.0560   71.1840   -9.0240 C.ar  125  TYR125     -0.0009
    137  CD2       11.4710   73.0790   -9.3490 C.ar  125  TYR125     -0.0009
    138  CE1        8.9350   71.9700   -9.2450 C.ar  125  TYR125      0.0417
    139  CE2       10.3580   73.8770   -9.5740 C.ar  125  TYR125      0.0417
    140  CZ         9.0890   73.3150   -9.5180 C.ar  125  TYR125      0.1957
    141  OH         7.9720   74.0930   -9.7160 O.3   125  TYR125     -0.2866
    142  N         18.7380   69.2110   -8.7280 N.3   127  LEU127     -0.1245
    143  CA        19.7670   69.9200   -7.9570 C.3   127  LEU127      0.1561
    144  C         21.0760   70.0490   -8.7140 C.2   127  LEU127      0.2260
    145  O         21.3470   69.2820   -9.6370 O.2   127  LEU127     -0.2867
    146  CB        20.0450   69.2070   -6.6350 C.3   127  LEU127      0.0270
    147  CG        19.0060   69.3450   -5.5270 C.3   127  LEU127      0.0019
    148  CD1       18.8160   70.8140   -5.2150 C.3   127  LEU127      0.0001
    149  CD2       17.6980   68.7210   -5.9530 C.3   127  LEU127      0.0001
    150  N         26.9010   67.9970    0.1020 N.3   129  LEU129     -0.1245
    151  CA        25.5560   68.5200    0.3220 C.3   129  LEU129      0.1561
    152  C         24.8400   67.6300    1.3290 C.2   129  LEU129      0.2260
    153  O         25.4900   66.8850    2.0780 O.2   129  LEU129     -0.2867
    154  CB        24.7700   68.5460   -1.0010 C.3   129  LEU129      0.0270
    155  CG        23.9410   69.7980   -1.3430 C.3   129  LEU129      0.0019
    156  CD1       23.3350   69.6570   -2.7380 C.3   129  LEU129      0.0001
    157  CD2       22.8490   70.0130   -0.2970 C.3   129  LEU129      0.0001
    158  N         21.7400   70.1110    4.3210 N.3   132  GLU132     -0.1245
    159  CA        20.5520   70.9470    4.3880 C.3   132  GLU132      0.1567
    160  C         19.4050   70.1240    4.9820 C.2   132  GLU132      0.2260
    161  O         19.0480   69.0740    4.4470 O.2   132  GLU132     -0.2867
    162  CB        20.1820   71.4390    2.9860 C.3   132  GLU132      0.0388
    163  CG        18.9770   72.3620    2.9490 C.3   132  GLU132      0.1160
    164  CD        19.2400   73.6990    3.6140 C.2   132  GLU132      0.3649
    165  OE1       18.2640   74.4280    3.8950 O.co2 132  GLU132     -0.2457
    166  OE2       20.4230   74.0240    3.8480 O.co2 132  GLU132     -0.2457
    167  N         16.3660   70.4020    4.8170 N.3   134  MET134     -0.1230
    168  CA        15.3360   70.2150    3.8090 C.3   134  MET134      0.1702
    169  C         15.6190   68.9700    2.9690 C.2   134  MET134      0.2592
    170  O         14.7880   68.0700    2.8860 O.2   134  MET134     -0.2718
    171  CB        15.2930   71.4330    2.8900 C.3   134  MET134      0.0401
    172  CG        14.1180   71.4530    1.9250 C.3   134  MET134      0.0596
    173  SD        12.7070   72.2260    2.7250 S.3   134  MET134     -0.1393
    174  CE        12.0320   70.8020    3.6670 C.3   134  MET134      0.0692
    175  N         16.7920   68.9220    2.3440 N.am  135  LEU135     -0.1980
    176  CA        17.1470   67.7820    1.5060 C.3   135  LEU135      0.1596
    177  C         17.3630   66.4940    2.2860 C.2   135  LEU135      0.2287
    178  O         16.9890   65.4130    1.8170 O.2   135  LEU135     -0.2864
    179  CB        18.4060   68.0720    0.6730 C.3   135  LEU135      0.0297
    180  CG        18.3570   69.1440   -0.4190 C.3   135  LEU135      0.0022
    181  CD1       16.9410   69.1860   -0.9940 C.3   135  LEU135      0.0001
    182  CD2       18.7570   70.5010    0.1380 C.3   135  LEU135      0.0001
    183  N         13.9330   64.9520    2.9150 N.3   138  HIS138     -0.1241
    184  CA        13.3820   64.2680    1.7610 C.3   138  HIS138      0.1621
    185  C         14.0790   62.9500    1.4540 C.2   138  HIS138      0.2264
    186  O         13.4260   61.9830    1.0670 O.2   138  HIS138     -0.2867
    187  CB        13.4110   65.1920    0.5360 C.3   138  HIS138      0.0745
    188  CG        12.2610   66.1480    0.4870 C.ar  138  HIS138      0.0817
    189  ND1       10.9920   65.7640    0.1260 N.ar  138  HIS138     -0.2268
    190  CD2       12.1730   67.4590    0.8140 C.ar  138  HIS138      0.1154
    191  CE1       10.1710   66.7940    0.2320 C.ar  138  HIS138      0.1986
    192  NE2       10.8630   67.8360    0.6480 N.ar  138  HIS138     -0.2212
    193  N         11.8160   77.3410    8.6220 N.3   218  HIS218     -0.1241
    194  CA        11.5000   77.8850    7.3080 C.3   218  HIS218      0.1621
    195  C         10.7460   79.2030    7.4130 C.2   218  HIS218      0.2264
    196  O         11.0960   80.1770    6.7550 O.2   218  HIS218     -0.2867
    197  CB        10.6390   76.9020    6.5360 C.3   218  HIS218      0.0745
    198  CG        10.7200   77.0730    5.0540 C.ar  218  HIS218      0.0817
    199  ND1       11.8060   76.6450    4.3210 N.ar  218  HIS218     -0.2268
    200  CD2        9.8610   77.6330    4.1680 C.ar  218  HIS218      0.1154
    201  CE1       11.6130   76.9310    3.0470 C.ar  218  HIS218      0.1986
    202  NE2       10.4410   77.5320    2.9270 N.ar  218  HIS218     -0.2212
    203  N         12.9140   82.1540    8.0540 N.3   221  ARG221     -0.1231
    204  CA        13.7000   82.4520    6.8690 C.3   221  ARG221      0.1694
    205  C         12.8660   83.0790    5.7540 C.2   221  ARG221      0.2591
    206  O         13.3290   83.9830    5.0660 O.2   221  ARG221     -0.2718
    207  CB        14.3780   81.1750    6.3860 C.3   221  ARG221      0.0321
    208  CG        15.1640   81.3160    5.1070 C.3   221  ARG221      0.0489
    209  CD        16.0720   80.1160    4.9240 C.3   221  ARG221      0.2205
    210  NE        15.3810   78.8710    5.2540 N.pl3 221  ARG221     -0.0865
    211  CZ        15.9470   77.6680    5.2370 C.cat 221  ARG221      0.5346
    212  NH1       17.2230   77.5350    4.8990 N.pl3 221  ARG221      0.1354
    213  NH2       15.2380   76.5960    5.5690 N.pl3 221  ARG221      0.1354
    214  N         11.6370   82.6000    5.5830 N.am  222  LEU222     -0.1980
    215  CA        10.7400   83.1280    4.5530 C.3   222  LEU222      0.1596
    216  C         10.3280   84.5560    4.8900 C.2   222  LEU222      0.2287
    217  O         10.2010   85.3920    4.0020 O.2   222  LEU222     -0.2864
    218  CB         9.4830   82.2450    4.4110 C.3   222  LEU222      0.0297
    219  CG         8.4830   82.5500    3.2770 C.3   222  LEU222      0.0022
    220  CD1        7.7550   81.2780    2.8800 C.3   222  LEU222      0.0001
    221  CD2        7.4920   83.6180    3.7000 C.3   222  LEU222      0.0001
    222  N         12.9880   87.0030    3.9590 N.3   225  ILE225     -0.1245
    223  CA        13.0230   87.3080    2.5320 C.3   225  ILE225      0.1561
    224  C         11.8990   88.2830    2.1820 C.2   225  ILE225      0.2260
    225  O         12.1100   89.2390    1.4360 O.2   225  ILE225     -0.2867
    226  CB        12.8630   86.0250    1.6690 C.3   225  ILE225      0.0252
    227  CG1       14.0100   85.0460    1.9660 C.3   225  ILE225      0.0019
    228  CG2       12.8400   86.3950    0.1900 C.3   225  ILE225      0.0019
    229  CD1       13.9130   83.7110    1.2400 C.3   225  ILE225      0.0001
    230  N          7.3370   88.7790   -2.1450 N.3   231  PHE231     -0.1241
    231  CA         7.0240   87.8110   -3.2010 C.3   231  PHE231      0.1605
    232  C          5.7520   87.0420   -2.8370 C.2   231  PHE231      0.2264
    233  O          5.0250   86.5660   -3.7150 O.2   231  PHE231     -0.2867
    234  CB         8.1870   86.8130   -3.3450 C.3   231  PHE231      0.0534
    235  CG         8.4810   86.0580   -2.0770 C.ar  231  PHE231     -0.0203
    236  CD1        7.7800   84.8950   -1.7620 C.ar  231  PHE231     -0.0042
    237  CD2        9.3630   86.5800   -1.1300 C.ar  231  PHE231     -0.0042
    238  CE1        7.9430   84.2690   -0.5160 C.ar  231  PHE231     -0.0003
    239  CE2        9.5320   85.9650    0.1140 C.ar  231  PHE231     -0.0003
    240  CZ         8.8190   84.8090    0.4220 C.ar  231  PHE231     -0.0000
    241  N         -0.3110   82.9760    0.5040 N.3   236  MET236     -0.1245
    242  CA         0.8780   82.7740    1.3190 C.3   236  MET236      0.1570
    243  C          0.9160   83.7720    2.4600 C.2   236  MET236      0.2261
    244  O          1.5760   83.5470    3.4590 O.2   236  MET236     -0.2867
    245  CB         2.1280   82.9240    0.4750 C.3   236  MET236      0.0387
    246  CG         2.3440   81.7780   -0.4840 C.3   236  MET236      0.0595
    247  SD         3.6470   82.1210   -1.6550 S.3   236  MET236     -0.1393
    248  CE         5.0490   82.2930   -0.5530 C.3   236  MET236      0.0692
    249  N          1.1950   82.6870    6.3970 N.3   240  PHE240     -0.1241
    250  CA         2.3450   83.1240    7.1840 C.3   240  PHE240      0.1605
    251  C          2.0880   84.4400    7.9180 C.2   240  PHE240      0.2264
    252  O          2.9960   85.0020    8.5330 O.2   240  PHE240     -0.2867
    253  CB         3.5860   83.2590    6.2910 C.3   240  PHE240      0.0534
    254  CG         4.0590   81.9540    5.7000 C.ar  240  PHE240     -0.0203
    255  CD1        3.4520   81.4180    4.5660 C.ar  240  PHE240     -0.0042
    256  CD2        5.0990   81.2430    6.2980 C.ar  240  PHE240     -0.0042
    257  CE1        3.8720   80.1940    4.0380 C.ar  240  PHE240     -0.0003
    258  CE2        5.5260   80.0160    5.7780 C.ar  240  PHE240     -0.0003
    259  CZ         4.9100   79.4930    4.6460 C.ar  240  PHE240     -0.0000
@<TRIPOS>BOND
     1   130   131    1
     2    13    12    2
     3    24    22    1
     4    12    11    1
     5   131   132    1
     6   131   134    1
     7   119   118    2
     8   141   140    1
     9    22    23    1
    10    22    21    1
    11   132   133    2
    12   145   144    2
    13   139   140   ar
    14   139   137   ar
    15   140   138   ar
    16   137   135   ar
    17   138   136   ar
    18   118   117    1
    19   135   136   ar
    20   135   134    1
    21    17    18    1
    22    18    21    1
    23    18    19    1
    24   142   143    1
    25   144   143    1
    26    11    10    1
    27    11    14    1
    28    10     3   am
    29   116   117    1
    30    14    15    1
    31    14    16    1
    32   143   146    1
    33    52    53    1
    34    52    51    1
    35   117   120    1
    36    19    20    2
    37    19    25   am
    38    33    34    1
    39     3     4    2
    40     3     2    1
    41    46    47    1
    42    40    39    1
    43    25    26    1
    44    50    47    1
    45    50    51    1
    46   120   121    1
    47    47    48    1
    48     2     1    1
    49     2     5    1
    50    27    28    2
    51    27    26    1
    52   146   147    1
    53    34    37    1
    54    34    35    1
    55     6     5    1
    56     6     7    1
    57    39    38    1
    58    26    29    1
    59   149   147    1
    60    41    35   am
    61    41    42    1
    62    37    38    1
    63    43    44    2
    64    43    42    1
    65    35    36    2
    66   121   123   ar
    67   121   122   ar
    68    48    49    2
    69    48    54   am
    70   147   148    1
    71     7     8    1
    72   126   123   ar
    73   126   128   ar
    74    29    30    1
    75   114   115   ar
    76   114   112   ar
    77    45    42    1
    78   123   125   ar
    79     9     8    1
    80    30    32    1
    81    30    31    1
    82    54    55    1
    83   122   124   ar
    84   128   129   ar
    85    66    65    1
    86    66    67    1
    87   115   113   ar
    88    60    61    1
    89   112   110   ar
    90    65    64    1
    91   233   232    2
    92   125   124   ar
    93   125   127   ar
    94    61    64    1
    95    61    62    1
    96   108   107    2
    97   234   231    1
    98   234   235    1
    99    55    56    1
   100    55    58    1
   101   129   127   ar
   102    56    57    2
   103   231   232    1
   104   231   230    1
   105   113   111   ar
   106   110   111   ar
   107   110   109    1
   108   156   155    1
   109    58    59    1
   110   106   107    1
   111   106   109    1
   112   106   105    1
   113    62    68   am
   114    62    63    2
   115   235   236   ar
   116   235   237   ar
   117    68    69    1
   118   236   238   ar
   119   247   248    1
   120   247   246    1
   121   155   154    1
   122   155   157    1
   123   237   239   ar
   124   154   151    1
   125   181   180    1
   126    70    69    1
   127    70    71    2
   128    69    72    1
   129   238   240   ar
   130   246   245    1
   131   180   182    1
   132   180   179    1
   133    72    73    1
   134    93    92    2
   135   150   151    1
   136   239   240   ar
   137   189   191   ar
   138   189   188   ar
   139   228   226    1
   140   191   192   ar
   141    74    73   ar
   142    74    76   ar
   143   151   152    1
   144    73    75   ar
   145   245   242    1
   146   188   187    1
   147   188   190   ar
   148    95    94    1
   149   241   242    1
   150   187   184    1
   151   192   190   ar
   152   179   176    1
   153    76    78   ar
   154    94    91    1
   155    92    91    1
   156    92    96   am
   157   186   185    2
   158   229   227    1
   159    91    90    1
   160    75    77   ar
   161    99    98    2
   162   104   102   am
   163   242   243    1
   164   152   153    2
   165   225   224    2
   166   185   184    1
   167   176   177    1
   168   176   175    1
   169   103   102    2
   170   226   227    1
   171   226   223    1
   172   184   183    1
   173    78    77   ar
   174   178   177    2
   175   172   173    1
   176   172   171    1
   177   102   101    1
   178    98    97    1
   179    97    96    1
   180    97   100    1
   181   224   223    1
   182   175   169   am
   183   243   244    2
   184   223   222    1
   185   173   174    1
   186   220   219    1
   187   170   169    2
   188   171   168    1
   189   202   201   ar
   190   202   200   ar
   191   163   162    1
   192   163   164    1
   193   169   168    1
   194   162   159    1
   195   201   199   ar
   196   219   221    1
   197   219   218    1
   198   100   101    1
   199   164   166   ar
   200   164   165   ar
   201    87    85   ar
   202    87    89   ar
   203   168   167    1
   204   217   216    2
   205    85    84   ar
   206   257   255   ar
   207   257   259   ar
   208    82    81    2
   209   200   198   ar
   210   199   198   ar
   211   158   159    1
   212   159   160    1
   213   218   215    1
   214   161   160    2
   215   215   216    1
   216   215   214    1
   217    89    88   ar
   218   255   254   ar
   219   259   258   ar
   220   212   211    1
   221    80    81    1
   222    80    79    1
   223    80    83    1
   224   209   208    1
   225   209   210    1
   226   198   197    1
   227   206   205    2
   228   208   207    1
   229   211   210    2
   230   211   213    1
   231    84    83    1
   232    84    86   ar
   233   214   205   am
   234   254   253    1
   235   254   256   ar
   236   205   204    1
   237   258   256   ar
   238    88    86   ar
   239   253   250    1
   240   207   204    1
   241   249   250    1
   242   197   194    1
   243   196   195    2
   244   204   203    1
   245   250   251    1
   246   194   195    1
   247   194   193    1
   248   251   252    2
