@<TRIPOS>MOLECULE
tmp/1sl3A00.pdb
 203 203 0 0 0
SMALL
GASTEIGER

@<TRIPOS>ATOM
      1  N         22.5630   -6.9770   18.3680 N.3    69  HIS69      -0.1241
      2  CA        22.4230   -8.3300   17.8420 C.3    69  HIS69       0.1621
      3  C         21.6700   -8.4040   16.5130 C.2    69  HIS69       0.2264
      4  O         21.6470   -9.4480   15.8680 O.2    69  HIS69      -0.2867
      5  CB        21.7750   -9.2640   18.8670 C.3    69  HIS69       0.0745
      6  CG        20.2760   -9.2350   18.8680 C.ar   69  HIS69       0.0817
      7  ND1       19.5520   -8.4230   19.7030 N.ar   69  HIS69      -0.2268
      8  CD2       19.3790   -9.9480   18.1450 C.ar   69  HIS69       0.1154
      9  CE1       18.2580   -8.6360   19.5010 C.ar   69  HIS69       0.1986
     10  NE2       18.1300   -9.5530   18.5650 N.ar   69  HIS69      -0.2212
     11  N         25.8510  -10.9890   15.3620 N.3    73  TYR73      -0.1241
     12  CA        25.5880  -12.0800   16.2860 C.3    73  TYR73       0.1605
     13  C         26.1840  -13.3700   15.7350 C.2    73  TYR73       0.2264
     14  O         25.4870  -14.1840   15.1290 O.2    73  TYR73      -0.2867
     15  CB        24.0850  -12.2600   16.5210 C.3    73  TYR73       0.0534
     16  CG        23.8000  -13.1440   17.7130 C.ar   73  TYR73      -0.0201
     17  CD1       24.1940  -12.7590   18.9860 C.ar   73  TYR73      -0.0009
     18  CD2       23.2040  -14.3880   17.5590 C.ar   73  TYR73      -0.0009
     19  CE1       24.0190  -13.5950   20.0780 C.ar   73  TYR73       0.0417
     20  CE2       23.0210  -15.2310   18.6400 C.ar   73  TYR73       0.0417
     21  CZ        23.4360  -14.8270   19.8990 C.ar   73  TYR73       0.1957
     22  OH        23.2990  -15.6690   20.9730 O.3    73  TYR73      -0.2866
     23  N         24.6940  -17.0610   15.2640 N.3    76  TRP76      -0.1241
     24  CA        23.7790  -17.3420   14.1590 C.3    76  TRP76       0.1605
     25  C         24.3570  -16.8610   12.8290 C.2    76  TRP76       0.2264
     26  O         23.6210  -16.6480   11.8650 O.2    76  TRP76      -0.2867
     27  CB        22.4210  -16.6700   14.3900 C.3    76  TRP76       0.0550
     28  CG        21.7050  -17.1140   15.6370 C.ar   76  TRP76       0.0003
     29  CD1       21.9350  -18.2500   16.3600 C.ar   76  TRP76       0.0946
     30  CD2       20.6120  -16.4470   16.2810 C.ar   76  TRP76       0.0152
     31  NE1       21.0540  -18.3300   17.4130 N.ar   76  TRP76      -0.2442
     32  CE2       20.2330  -17.2340   17.3860 C.ar   76  TRP76       0.0810
     33  CE3       19.9180  -15.2580   16.0260 C.ar   76  TRP76       0.0012
     34  CZ2       19.1870  -16.8710   18.2390 C.ar   76  TRP76       0.0191
     35  CZ3       18.8810  -14.9020   16.8760 C.ar   76  TRP76       0.0001
     36  CH2       18.5280  -15.7050   17.9670 C.ar   76  TRP76       0.0015
     37  N         28.0020  -10.2990   22.9250 N.3   118  TRP118     -0.1241
     38  CA        27.2210  -11.2940   22.1950 C.3   118  TRP118      0.1605
     39  C         27.5750  -12.7100   22.6320 C.2   118  TRP118      0.2264
     40  O         26.8090  -13.6440   22.4090 O.2   118  TRP118     -0.2867
     41  CB        27.4500  -11.1680   20.6820 C.3   118  TRP118      0.0550
     42  CG        28.9000  -11.1310   20.2620 C.ar  118  TRP118      0.0003
     43  CD1       29.6690  -10.0160   20.0550 C.ar  118  TRP118      0.0946
     44  CD2       29.7510  -12.2580   19.9960 C.ar  118  TRP118      0.0152
     45  NE1       30.9390  -10.3810   19.6740 N.ar  118  TRP118     -0.2442
     46  CE2       31.0160  -11.7490   19.6330 C.ar  118  TRP118      0.0810
     47  CE3       29.5640  -13.6450   20.0320 C.ar  118  TRP118      0.0012
     48  CZ2       32.0900  -12.5810   19.3080 C.ar  118  TRP118      0.0191
     49  CZ3       30.6320  -14.4680   19.7080 C.ar  118  TRP118      0.0001
     50  CH2       31.8780  -13.9320   19.3510 C.ar  118  TRP118      0.0015
     51  N         27.9070  -13.9210   25.7440 N.3   120  GLU120     -0.1231
     52  CA        27.1980  -14.4150   26.9110 C.3   120  GLU120      0.1699
     53  C         25.7200  -14.0880   27.0840 C.2   120  GLU120      0.2592
     54  O         24.8670  -14.9700   26.9860 O.2   120  GLU120     -0.2718
     55  CB        27.9280  -13.9560   28.1810 C.3   120  GLU120      0.0402
     56  CG        27.4630  -14.6640   29.4460 C.3   120  GLU120      0.1161
     57  CD        27.8650  -13.9260   30.7120 C.2   120  GLU120      0.3649
     58  OE1       28.9580  -13.3200   30.7310 O.co2 120  GLU120     -0.2457
     59  OE2       27.0850  -13.9590   31.6920 O.co2 120  GLU120     -0.2457
     60  N         25.4220  -12.8180   27.3390 N.am  121  ASN121     -0.1960
     61  CA        24.0520  -12.4050   27.6370 C.3   121  ASN121      0.1819
     62  C         23.5020  -11.1930   26.8950 C.2   121  ASN121      0.2621
     63  O         22.5170  -10.6030   27.3380 O.2   121  ASN121     -0.2715
     64  CB        23.9710  -12.1150   29.1300 C.3   121  ASN121      0.1195
     65  CG        24.9690  -11.0460   29.5550 C.2   121  ASN121      0.2630
     66  OD1       25.7040  -10.5060   28.7230 O.2   121  ASN121     -0.2716
     67  ND2       24.9970  -10.7310   30.8450 N.am  121  ASN121     -0.0877
     68  N         24.1220  -10.8130   25.7860 N.am  122  LEU122     -0.1977
     69  CA        23.6760   -9.6440   25.0320 C.3   122  LEU122      0.1596
     70  C         23.7290   -8.3540   25.8590 C.2   122  LEU122      0.2287
     71  O         22.9130   -7.4480   25.6760 O.2   122  LEU122     -0.2864
     72  CB        22.2590   -9.8580   24.4890 C.3   122  LEU122      0.0297
     73  CG        22.1730  -10.9180   23.3860 C.3   122  LEU122      0.0022
     74  CD1       20.7730  -10.9180   22.7770 C.3   122  LEU122      0.0001
     75  CD2       23.2130  -10.6230   22.3230 C.3   122  LEU122      0.0001
     76  N          5.3030  -17.6810   19.2780 N.3   172  GLU172     -0.1245
     77  CA         6.6250  -18.2970   19.3120 C.3   172  GLU172      0.1567
     78  C          6.6700  -19.4580   18.3220 C.2   172  GLU172      0.2260
     79  O          7.6600  -19.5580   17.5670 O.2   172  GLU172     -0.2867
     80  CB         6.9600  -18.8090   20.7180 C.3   172  GLU172      0.0388
     81  CG         8.3100  -19.5190   20.7790 C.3   172  GLU172      0.1160
     82  CD         8.6240  -20.1090   22.1430 C.2   172  GLU172      0.3649
     83  OE1        9.5210  -20.9770   22.2040 O.co2 172  GLU172     -0.2457
     84  OE2        7.9950  -19.7110   23.1480 O.co2 172  GLU172     -0.2457
     85  N         20.0820  -16.9040   32.8030 N.3   197  ILE197     -0.1245
     86  CA        20.9570  -15.9340   32.1490 C.3   197  ILE197      0.1561
     87  C         21.3430  -14.8480   33.1580 C.2   197  ILE197      0.2260
     88  O         20.5190  -14.4160   33.9710 O.2   197  ILE197     -0.2867
     89  CB        20.2510  -15.2510   30.9300 C.3   197  ILE197      0.0252
     90  CG1       19.7950  -16.3060   29.9200 C.3   197  ILE197      0.0019
     91  CG2       21.2140  -14.2810   30.2260 C.3   197  ILE197      0.0019
     92  CD1       20.9390  -16.9820   29.1880 C.3   197  ILE197      0.0001
     93  N          4.2210   -9.8980   24.7310 N.3   217  ASP217     -0.1225
     94  CA         5.6790   -9.9310   24.7200 C.3   217  ASP217      0.1805
     95  C          6.1210   -9.6340   23.2910 C.2   217  ASP217      0.2598
     96  O          5.2970   -9.6100   22.3740 O.2   217  ASP217     -0.2718
     97  CB         6.1310  -11.3430   25.1250 C.3   217  ASP217      0.1424
     98  CG         7.6290  -11.4550   25.3770 C.2   217  ASP217      0.3668
     99  OD1        8.1050  -12.6060   25.5600 O.co2 217  ASP217     -0.2456
    100  OD2        8.3240  -10.4170   25.4020 O.co2 217  ASP217     -0.2456
    101  N          7.4120   -9.3850   23.1120 N.am  218  ALA218     -0.1966
    102  CA         7.9620   -9.1620   21.7910 C.3   218  ALA218      0.1728
    103  C          8.3350  -10.5680   21.3220 C.2   218  ALA218      0.2616
    104  O          8.3530  -11.5000   22.1220 O.2   218  ALA218     -0.2715
    105  CB         9.2040   -8.3020   21.8790 C.3   218  ALA218      0.0334
    106  N          8.6370  -10.7230   20.0410 N.am  219  CYS219     -0.1954
    107  CA         9.0280  -12.0220   19.5140 C.3   219  CYS219      0.1843
    108  C         10.0200  -11.8350   18.3590 C.2   219  CYS219      0.2625
    109  O         10.5480  -10.7300   18.1680 O.2   219  CYS219     -0.2714
    110  CB         7.7940  -12.8280   19.0810 C.3   219  CYS219      0.0997
    111  SG         8.0220  -14.6540   19.0880 S.3   219  CYS219     -0.0797
    112  N         10.2760  -12.8970   17.5910 N.am  220  GLU220     -0.1977
    113  CA        11.2600  -12.8210   16.5100 C.3   220  GLU220      0.1602
    114  C         10.9400  -11.7540   15.4810 C.2   220  GLU220      0.2287
    115  O          9.8490  -11.7370   14.9220 O.2   220  GLU220     -0.2864
    116  CB        11.4290  -14.1880   15.8290 C.3   220  GLU220      0.0415
    117  CG        12.5110  -14.2210   14.7700 C.3   220  GLU220      0.1163
    118  CD        12.7870  -15.6220   14.2510 C.2   220  GLU220      0.3649
    119  OE1       13.5620  -15.7410   13.2790 O.co2 220  GLU220     -0.2457
    120  OE2       12.2420  -16.5980   14.8100 O.co2 220  GLU220     -0.2457
    121  N         13.1310   -7.4810   17.6890 N.3   223  SER223     -0.1217
    122  CA        14.4160   -7.0410   18.2160 C.3   223  SER223      0.1889
    123  C         14.7750   -5.6970   17.6100 C.2   223  SER223      0.2288
    124  O         14.4890   -5.4480   16.4410 O.2   223  SER223     -0.2866
    125  CB        15.5030   -8.0560   17.8490 C.3   223  SER223      0.2089
    126  OG        15.2300   -9.3310   18.4040 O.3   223  SER223     -0.2183
    127  N         14.1140   -3.5240   22.3760 N.3   243  VAL243     -0.1231
    128  CA        13.7670   -4.9530   22.4420 C.3   243  VAL243      0.1692
    129  C         15.0680   -5.7260   22.2470 C.2   243  VAL243      0.2593
    130  O         15.7050   -5.6200   21.1970 O.2   243  VAL243     -0.2718
    131  CB        12.7650   -5.3620   21.3260 C.3   243  VAL243      0.0266
    132  CG1       12.3530   -6.8290   21.4940 C.3   243  VAL243      0.0020
    133  CG2       11.5420   -4.4560   21.3640 C.3   243  VAL243      0.0020
    134  N         15.4510   -6.5000   23.2590 N.am  244  SER244     -0.1938
    135  CA        16.7020   -7.2450   23.2180 C.3   244  SER244      0.2055
    136  C         16.5950   -8.7690   23.1790 C.2   244  SER244      0.2643
    137  O         16.9070   -9.3910   22.1650 O.2   244  SER244     -0.2714
    138  CB        17.5720   -6.8270   24.4110 C.3   244  SER244      0.2130
    139  OG        18.8450   -7.4390   24.3430 O.3   244  SER244     -0.2179
    140  N         16.1760   -9.3840   24.2800 N.am  245  TRP245     -0.1959
    141  CA        16.0910  -10.8400   24.2950 C.3   245  TRP245      0.1771
    142  C         15.0360  -11.4390   25.2040 C.2   245  TRP245      0.2620
    143  O         14.4470  -10.7590   26.0400 O.2   245  TRP245     -0.2715
    144  CB        17.4530  -11.4490   24.6610 C.3   245  TRP245      0.0590
    145  CG        17.9550  -11.0800   26.0320 C.ar  245  TRP245      0.0006
    146  CD1       18.6870   -9.9800   26.3670 C.ar  245  TRP245      0.0946
    147  CD2       17.7660  -11.8200   27.2510 C.ar  245  TRP245      0.0152
    148  NE1       18.9710   -9.9880   27.7140 N.ar  245  TRP245     -0.2442
    149  CE2       18.4180  -11.1060   28.2790 C.ar  245  TRP245      0.0810
    150  CE3       17.1130  -13.0140   27.5710 C.ar  245  TRP245      0.0012
    151  CZ2       18.4350  -11.5480   29.6050 C.ar  245  TRP245      0.0191
    152  CZ3       17.1310  -13.4530   28.8930 C.ar  245  TRP245      0.0001
    153  CH2       17.7870  -12.7210   29.8890 C.ar  245  TRP245      0.0015
    154  N         14.8080  -12.7340   25.0180 N.am  246  GLY246     -0.1940
    155  CA        13.8420  -13.4590   25.8250 C.3   246  GLY246      0.2014
    156  C         13.9800  -14.9420   25.5360 C.2   246  GLY246      0.2639
    157  O         14.5480  -15.3210   24.5190 O.2   246  GLY246     -0.2714
    158  N         13.4910  -15.7850   26.4370 N.am  247  GLU247     -0.1963
    159  CA        13.5560  -17.2230   26.2300 C.3   247  GLU247      0.1733
    160  C         12.1600  -17.6000   25.7530 C.2   247  GLU247      0.2617
    161  O         11.2310  -17.7420   26.5510 O.2   247  GLU247     -0.2715
    162  CB        13.9230  -17.9180   27.5410 C.3   247  GLU247      0.0429
    163  CG        15.2410  -17.4080   28.1010 C.3   247  GLU247      0.1163
    164  CD        15.5860  -18.0080   29.4460 C.2   247  GLU247      0.3649
    165  OE1       16.0530  -19.1700   29.4810 O.co2 247  GLU247     -0.2457
    166  OE2       15.3800  -17.3150   30.4640 O.co2 247  GLU247     -0.2457
    167  N         12.0250  -17.7460   24.4380 N.am  248  GLY248     -0.1940
    168  CA        10.7360  -18.0460   23.8470 C.3   248  GLY248      0.2014
    169  C          9.9860  -16.7240   23.7700 C.2   248  GLY248      0.2639
    170  O         10.5900  -15.6620   23.9590 O.2   248  GLY248     -0.2714
    171  N          8.6830  -16.7790   23.5190 N.am  249  CYS249     -0.1967
    172  CA         7.8610  -15.5760   23.4340 C.3   249  CYS249      0.1712
    173  C          6.5880  -15.7500   24.2370 C.2   249  CYS249      0.2296
    174  O          5.8540  -16.7270   24.0510 O.2   249  CYS249     -0.2864
    175  CB         7.4790  -15.2830   21.9810 C.3   249  CYS249      0.0983
    176  SG         8.9000  -15.0960   20.8650 S.3   249  CYS249     -0.0798
    177  N         10.3430  -10.3450   28.8840 N.3   256  GLY256     -0.1210
    178  CA        11.1700   -9.8430   27.8100 C.3   256  GLY256      0.1956
    179  C         12.2240   -8.9400   28.4090 C.2   256  GLY256      0.2612
    180  O         11.9600   -8.2480   29.3950 O.2   256  GLY256     -0.2717
    181  N         13.4210   -8.9430   27.8320 N.am  257  PHE257     -0.1962
    182  CA        14.4920   -8.0950   28.3450 C.3   257  PHE257      0.1771
    183  C         14.8240   -7.0040   27.3560 C.2   257  PHE257      0.2619
    184  O         14.9110   -7.2420   26.1480 O.2   257  PHE257     -0.2715
    185  CB        15.7330   -8.9190   28.6980 C.3   257  PHE257      0.0574
    186  CG        15.5940   -9.6810   29.9840 C.ar  257  PHE257     -0.0200
    187  CD1       14.7770  -10.7980   30.0630 C.ar  257  PHE257     -0.0042
    188  CD2       16.2350   -9.2430   31.1330 C.ar  257  PHE257     -0.0042
    189  CE1       14.6050  -11.4650   31.2700 C.ar  257  PHE257     -0.0003
    190  CE2       16.0670   -9.9040   32.3360 C.ar  257  PHE257     -0.0003
    191  CZ        15.2530  -11.0100   32.4040 C.ar  257  PHE257     -0.0000
    192  N         15.0100   -5.8020   27.8850 N.am  258  TYR258     -0.1974
    193  CA        15.2650   -4.6400   27.0630 C.3   258  TYR258      0.1639
    194  C         16.5290   -3.8950   27.4450 C.2   258  TYR258      0.2290
    195  O         16.8600   -3.7760   28.6230 O.2   258  TYR258     -0.2864
    196  CB        14.0750   -3.6790   27.1670 C.3   258  TYR258      0.0560
    197  CG        12.7410   -4.3050   26.8340 C.ar  258  TYR258     -0.0198
    198  CD1       12.1100   -5.1680   27.7220 C.ar  258  TYR258     -0.0009
    199  CD2       12.1460   -4.0860   25.5980 C.ar  258  TYR258     -0.0009
    200  CE1       10.9310   -5.8000   27.3840 C.ar  258  TYR258      0.0417
    201  CE2       10.9710   -4.7110   25.2550 C.ar  258  TYR258      0.0417
    202  CZ        10.3700   -5.5680   26.1480 C.ar  258  TYR258      0.1957
    203  OH         9.2070   -6.2020   25.7900 O.3   258  TYR258     -0.2866
@<TRIPOS>BOND
     1    26    25    2
     2    25    24    1
     3   119   118   ar
     4    24    27    1
     5    24    23    1
     6   118   117    1
     7   118   120   ar
     8    27    28    1
     9   117   116    1
    10   115   114    2
    11    14    13    2
    12    11    12    1
    13   114   113    1
    14    28    30   ar
    15    28    29   ar
    16    13    12    1
    17   116   113    1
    18     4     3    2
    19    33    30   ar
    20    33    35   ar
    21    30    32   ar
    22    12    15    1
    23    29    31   ar
    24   124   123    2
    25   113   112    1
    26     3     2    1
    27    15    16    1
    28    35    36   ar
    29    32    31   ar
    30    32    34   ar
    31    18    16   ar
    32    18    20   ar
    33    79    78    2
    34   112   108   am
    35   123   122    1
    36   121   122    1
    37    16    17   ar
    38     2     1    1
    39     2     5    1
    40   125   122    1
    41   125   126    1
    42    36    34   ar
    43     8    10   ar
    44     8     6   ar
    45   109   108    2
    46    78    77    1
    47   108   107    1
    48    10     9   ar
    49    20    21   ar
    50     5     6    1
    51     6     7   ar
    52    17    19   ar
    53   110   111    1
    54   110   107    1
    55   111   176    1
    56    76    77    1
    57    48    50   ar
    58    48    46   ar
    59    77    80    1
    60    50    49   ar
    61     9     7   ar
    62   107   106    1
    63    46    45   ar
    64    46    44   ar
    65    45    43   ar
    66    49    47   ar
    67    21    19   ar
    68    21    22    1
    69    44    47   ar
    70    44    42   ar
    71   106   103   am
    72    43    42   ar
    73    42    41    1
    74    41    38    1
    75    80    81    1
    76    81    82    1
    77   176   175    1
    78   130   129    2
    79   103   102    1
    80   103   104    2
    81   131   133    1
    82   131   132    1
    83   131   128    1
    84   102   105    1
    85   102   101    1
    86   175   172    1
    87    82    83   ar
    88    82    84   ar
    89   137   136    2
    90    38    39    1
    91    38    37    1
    92   129   128    1
    93   129   134   am
    94    75    73    1
    95    96    95    2
    96   127   128    1
    97    40    39    2
    98    74    73    1
    99   101    95   am
   100   136   135    1
   101   136   140   am
   102   135   134    1
   103   135   138    1
   104    95    94    1
   105    73    72    1
   106   172   171    1
   107   172   173    1
   108   171   169   am
   109   169   168    1
   110   169   170    2
   111   168   167    1
   112   174   173    2
   113   140   141    1
   114   141   144    1
   115   141   142    1
   116   139   138    1
   117   167   160   am
   118    72    69    1
   119   157   156    2
   120   144   145    1
   121    94    93    1
   122    94    97    1
   123   154   142   am
   124   154   155    1
   125    69    68    1
   126    69    70    1
   127    97    98    1
   128   142   143    2
   129   201   199   ar
   130   201   202   ar
   131    98   100   ar
   132    98    99   ar
   133   156   155    1
   134   156   158   am
   135   199   197   ar
   136    71    70    2
   137    51    52    1
   138   160   159    1
   139   160   161    2
   140    68    62   am
   141   203   202    1
   142   145   146   ar
   143   145   147   ar
   144   184   183    2
   145   202   200   ar
   146   159   158    1
   147   159   162    1
   148   146   148   ar
   149   197   196    1
   150   197   198   ar
   151    62    63    2
   152    62    61    1
   153    52    53    1
   154    52    55    1
   155    54    53    2
   156   193   196    1
   157   193   194    1
   158   193   192    1
   159    53    60   am
   160   147   150   ar
   161   147   149   ar
   162    60    61    1
   163   183   192   am
   164   183   182    1
   165   200   198   ar
   166   194   195    2
   167   162   163    1
   168   150   152   ar
   169    61    64    1
   170   148   149   ar
   171   178   179    1
   172   178   177    1
   173   181   182    1
   174   181   179   am
   175   163   164    1
   176    55    56    1
   177   149   151   ar
   178   182   185    1
   179   179   180    2
   180   185   186    1
   181    66    65    2
   182   152   153   ar
   183    64    65    1
   184    92    90    1
   185    56    57    1
   186   164   165   ar
   187   164   166   ar
   188    65    67   am
   189   151   153   ar
   190    90    89    1
   191   186   187   ar
   192   186   188   ar
   193   187   189   ar
   194    91    89    1
   195    57    58   ar
   196    57    59   ar
   197    89    86    1
   198   188   190   ar
   199   189   191   ar
   200    86    85    1
   201    86    87    1
   202   190   191   ar
   203    87    88    2
