@<TRIPOS>MOLECULE
tmp/1sl4A00.pdb
 120 111 0 0 0
SMALL
GASTEIGER

@<TRIPOS>ATOM
      1  N         38.1580   27.3330    6.8180 N.3    61  PHE61      -0.1241
      2  CA        39.4890   26.7610    7.0050 C.3    61  PHE61       0.1605
      3  C         39.7350   26.0260    5.6890 C.2    61  PHE61       0.2264
      4  O         38.9050   25.2270    5.2540 O.2    61  PHE61      -0.2867
      5  CB        39.4950   25.8190    8.2090 C.3    61  PHE61       0.0534
      6  CG        39.2890   26.5280    9.5170 C.ar   61  PHE61      -0.0203
      7  CD1       38.1040   26.3790   10.2290 C.ar   61  PHE61      -0.0042
      8  CD2       40.2690   27.3830   10.0160 C.ar   61  PHE61      -0.0042
      9  CE1       37.8970   27.0740   11.4220 C.ar   61  PHE61      -0.0003
     10  CE2       40.0720   28.0830   11.2070 C.ar   61  PHE61      -0.0003
     11  CZ        38.8830   27.9280   11.9090 C.ar   61  PHE61      -0.0000
     12  N         50.4240   31.9180   11.4820 N.3    92  ASN92      -0.1240
     13  CA        49.7450   32.7130   12.5050 C.3    92  ASN92       0.1653
     14  C         50.6360   32.6990   13.7440 C.2    92  ASN92       0.2266
     15  O         51.5680   31.9000   13.8340 O.2    92  ASN92      -0.2867
     16  CB        48.3840   32.1150   12.8800 C.3    92  ASN92       0.1155
     17  CG        47.3520   32.2670   11.7830 C.2    92  ASN92       0.2627
     18  OD1       47.4090   33.2030   10.9890 O.2    92  ASN92      -0.2716
     19  ND2       46.3860   31.3560   11.7500 N.am   92  ASN92      -0.0877
     20  N         52.2070   29.5090   15.5950 N.3    95  GLU95      -0.1245
     21  CA        52.2270   28.4100   14.6330 C.3    95  GLU95       0.1567
     22  C         53.5600   28.3480   13.8890 C.2    95  GLU95       0.2260
     23  O         54.2460   29.3600   13.7440 O.2    95  GLU95      -0.2867
     24  CB        51.1020   28.5790   13.6060 C.3    95  GLU95       0.0388
     25  CG        49.7240   28.8820   14.1890 C.3    95  GLU95       0.1160
     26  CD        49.2250   27.8090   15.1320 C.2    95  GLU95       0.3649
     27  OE1       49.7460   26.6750   15.0840 O.co2  95  GLU95      -0.2457
     28  OE2       48.2940   28.0950   15.9160 O.co2  95  GLU95      -0.2457
     29  N         52.5360   24.7670   15.6260 N.3    97  ASN97      -0.1240
     30  CA        52.7590   24.2010   16.9540 C.3    97  ASN97       0.1653
     31  C         52.6310   22.6860   17.0810 C.2    97  ASN97       0.2266
     32  O         52.8530   22.1270   18.1600 O.2    97  ASN97      -0.2867
     33  CB        51.8460   24.8870   17.9790 C.3    97  ASN97       0.1155
     34  CG        50.3870   24.8960   17.5590 C.2    97  ASN97       0.2627
     35  OD1       49.9950   24.2420   16.5920 O.2    97  ASN97      -0.2716
     36  ND2       49.5700   25.6370   18.3000 N.am   97  ASN97      -0.0877
     37  N         50.4030   20.7660   17.6580 N.3    99  VAL99      -0.1245
     38  CA        49.6000   20.2980   18.7840 C.3    99  VAL99       0.1561
     39  C         48.7580   19.0740   18.4260 C.2    99  VAL99       0.2260
     40  O         47.8540   19.1430   17.5930 O.2    99  VAL99      -0.2867
     41  CB        48.6840   21.4240   19.3340 C.3    99  VAL99       0.0252
     42  CG1       49.5360   22.5990   19.7860 C.3    99  VAL99       0.0019
     43  CG2       47.6940   21.8780   18.2780 C.3    99  VAL99       0.0019
     44  N         50.1510   17.7770   14.0270 N.3   102  GLU102     -0.1245
     45  CA        49.5510   18.5020   12.9090 C.3   102  GLU102      0.1567
     46  C         50.5890   18.6090   11.8040 C.2   102  GLU102      0.2260
     47  O         51.5820   19.3320   11.9370 O.2   102  GLU102     -0.2867
     48  CB        49.1190   19.8870   13.3840 C.3   102  GLU102      0.0388
     49  CG        48.2090   19.8170   14.6090 C.3   102  GLU102      0.1160
     50  CD        47.7440   21.1740   15.0860 C.2   102  GLU102      0.3649
     51  OE1       48.6020   22.0420   15.3360 O.co2 102  GLU102     -0.2457
     52  OE2       46.5120   21.3700   15.2130 O.co2 102  GLU102     -0.2457
     53  N         46.9490   24.9080    6.4840 N.3   106  GLU106     -0.1245
     54  CA        45.6730   25.4830    6.0670 C.3   106  GLU106      0.1567
     55  C         45.7230   27.0060    6.1630 C.2   106  GLU106      0.2260
     56  O         46.5600   27.5700    6.8760 O.2   106  GLU106     -0.2867
     57  CB        44.5550   25.0110    6.9960 C.3   106  GLU106      0.0388
     58  CG        44.7350   25.5230    8.4330 C.3   106  GLU106      0.1160
     59  CD        43.4940   25.3810    9.3000 C.2   106  GLU106      0.3649
     60  OE1       43.5740   25.6880   10.5090 O.co2 106  GLU106     -0.2457
     61  OE2       42.4370   24.9780    8.7790 O.co2 106  GLU106     -0.2457
     62  N         44.1580   30.0690    7.6630 N.3   108  SER108     -0.1202
     63  CA        43.3450   30.3110    8.8440 C.3   108  SER108      0.2020
     64  C         43.3750   31.7950    9.1690 C.2   108  SER108      0.2619
     65  O         44.4390   32.3680    9.3990 O.2   108  SER108     -0.2717
     66  CB        43.8850   29.5120   10.0330 C.3   108  SER108      0.2103
     67  OG        43.1620   29.8090   11.2170 O.3   108  SER108     -0.2182
     68  N         42.2020   32.4170    9.1790 N.am  109  GLY109     -0.1942
     69  CA        42.1390   33.8330    9.4750 C.3   109  GLY109      0.2014
     70  C         42.9960   34.6150    8.5040 C.2   109  GLY109      0.2638
     71  O         42.7810   34.5530    7.2940 O.2   109  GLY109     -0.2714
     72  N         43.9870   35.3320    9.0240 N.am  110  ASN110     -0.1972
     73  CA        44.8630   36.1350    8.1810 C.3   110  ASN110      0.1688
     74  C         46.2140   35.4940    7.8940 C.2   110  ASN110      0.2292
     75  O         47.0780   36.1090    7.2700 O.2   110  ASN110     -0.2864
     76  CB        45.0760   37.5120    8.8160 C.3   110  ASN110      0.1181
     77  CG        43.7750   38.2630    9.0180 C.2   110  ASN110      0.2629
     78  OD1       43.0450   38.5330    8.0620 O.2   110  ASN110     -0.2716
     79  ND2       43.4730   38.5990   10.2670 N.am  110  ASN110     -0.0877
     80  N         48.0550   27.9890    9.4790 N.3   113  ASN113     -0.1225
     81  CA        48.0530   27.1790   10.6800 C.3   113  ASN113      0.1785
     82  C         48.2820   25.7400   10.2730 C.2   113  ASN113      0.2597
     83  O         47.9200   25.3340    9.1660 O.2   113  ASN113     -0.2718
     84  CB        46.7210   27.2860   11.4310 C.3   113  ASN113      0.1169
     85  CG        46.6440   26.3200   12.5980 C.2   113  ASN113      0.2627
     86  OD1       47.5490   26.2700   13.4310 O.2   113  ASN113     -0.2716
     87  ND2       45.5700   25.5470   12.6640 N.am  113  ASN113     -0.0877
     88  N         48.9310   24.9780   11.1430 N.am  114  ASP114     -0.1960
     89  CA        49.1230   23.5670   10.8780 C.3   114  ASP114      0.1840
     90  C         48.0150   22.8640   11.6570 C.2   114  ASP114      0.2622
     91  O         47.7130   23.2380   12.7930 O.2   114  ASP114     -0.2715
     92  CB        50.5270   23.0990   11.3070 C.3   114  ASP114      0.1450
     93  CG        50.8260   23.3390   12.7800 C.2   114  ASP114      0.3671
     94  OD1       50.3390   24.3340   13.3530 O.co2 114  ASP114     -0.2456
     95  OD2       51.5860   22.5230   13.3490 O.co2 114  ASP114     -0.2456
     96  N         47.3820   21.8780   11.0320 N.am  115  ASP115     -0.1957
     97  CA        46.2910   21.1490   11.6790 C.3   115  ASP115      0.1840
     98  C         46.3730   19.6700   11.3280 C.2   115  ASP115      0.2621
     99  O         47.1830   19.2650   10.4920 O.2   115  ASP115     -0.2715
    100  CB        44.9360   21.7060   11.2160 C.3   115  ASP115      0.1450
    101  CG        43.8590   21.6040   12.2850 C.2   115  ASP115      0.3671
    102  OD1       43.9280   20.6860   13.1290 O.co2 115  ASP115     -0.2456
    103  OD2       42.9280   22.4380   12.2710 O.co2 115  ASP115     -0.2456
    104  N         45.5060   18.8580   11.9280 N.am  116  LYS116     -0.1977
    105  CA        45.4910   17.4210   11.6610 C.3   116  LYS116      0.1596
    106  C         45.0850   17.1180   10.2170 C.2   116  LYS116      0.2287
    107  O         44.0310   17.5520    9.7480 O.2   116  LYS116     -0.2864
    108  CB        44.5390   16.7060   12.6290 C.3   116  LYS116      0.0298
    109  CG        44.9630   16.7620   14.0980 C.3   116  LYS116      0.0038
    110  CD        44.8470   18.1690   14.6680 C.3   116  LYS116      0.0206
    111  CE        45.1880   18.2130   16.1530 C.3   116  LYS116      0.1093
    112  NZ        45.0550   19.5870   16.7170 N.3   116  LYS116     -0.1314
    113  N         41.5130   15.8820    9.1430 N.3   119  LEU119     -0.1245
    114  CA        40.3570   16.7530    9.3140 C.3   119  LEU119      0.1561
    115  C         39.8730   17.1770    7.9390 C.2   119  LEU119      0.2260
    116  O         40.6760   17.4170    7.0300 O.2   119  LEU119     -0.2867
    117  CB        40.7200   17.9920   10.1280 C.3   119  LEU119      0.0270
    118  CG        40.8980   17.8090   11.6350 C.3   119  LEU119      0.0019
    119  CD1       41.3910   19.1110   12.2410 C.3   119  LEU119      0.0001
    120  CD2       39.5690   17.3940   12.2690 C.3   119  LEU119      0.0001
@<TRIPOS>BOND
     1     4     3    2
     2     3     2    1
     3    54    55    1
     4    54    53    1
     5    54    57    1
     6    55    56    2
     7     1     2    1
     8    57    58    1
     9     2     5    1
    10   116   115    2
    11    75    74    2
    12    71    70    2
    13    62    63    1
    14    74    73    1
    15   115   114    1
    16    78    77    2
    17    73    76    1
    18    73    72    1
    19     5     6    1
    20    58    59    1
    21    70    72   am
    22    70    69    1
    23    61    59   ar
    24    76    77    1
    25    63    64    1
    26    63    66    1
    27    77    79   am
    28   113   114    1
    29    83    82    2
    30    64    68   am
    31    64    65    2
    32    68    69    1
    33    59    60   ar
    34   114   117    1
    35    80    81    1
    36     6     8   ar
    37     6     7   ar
    38   107   106    2
    39     8    10   ar
    40    66    67    1
    41   117   118    1
    42   106   105    1
    43     7     9   ar
    44    82    81    1
    45    82    88   am
    46    99    98    2
    47    81    84    1
    48    89    88    1
    49    89    92    1
    50    89    90    1
    51    18    17    2
    52    96    90   am
    53    96    97    1
    54    10    11   ar
    55   100    97    1
    56   100   101    1
    57    92    93    1
    58    98    97    1
    59    98   104   am
    60     9    11   ar
    61    84    85    1
    62    12    13    1
    63   118   119    1
    64   118   120    1
    65    90    91    2
    66   105   104    1
    67   105   108    1
    68    19    17   am
    69    17    16    1
    70    46    47    2
    71    46    45    1
    72   103   101   ar
    73   101   102   ar
    74    13    16    1
    75    13    14    1
    76    85    87   am
    77    85    86    2
    78   108   109    1
    79    93    95   ar
    80    93    94   ar
    81    45    48    1
    82    45    44    1
    83    48    49    1
    84    24    25    1
    85    24    21    1
    86    23    22    2
    87    14    15    2
    88    22    21    1
    89   109   110    1
    90    25    26    1
    91    49    50    1
    92    21    20    1
    93   110   111    1
    94    27    26   ar
    95    50    52   ar
    96    50    51   ar
    97    26    28   ar
    98    29    30    1
    99   111   112    1
   100    35    34    2
   101    30    31    1
   102    30    33    1
   103    31    32    2
   104    34    33    1
   105    34    36   am
   106    40    39    2
   107    37    38    1
   108    43    41    1
   109    39    38    1
   110    38    41    1
   111    41    42    1
