@<TRIPOS>MOLECULE
tmp/1sl5A00.pdb
 109 100 0 0 0
SMALL
GASTEIGER

@<TRIPOS>ATOM
      1  N         15.9280   -5.1380    1.6270 N.3    61  PHE61      -0.1241
      2  CA        17.0900   -4.3640    2.0570 C.3    61  PHE61       0.1605
      3  C         16.4810   -3.0190    2.4460 C.2    61  PHE61       0.2264
      4  O         15.8060   -2.3800    1.6380 O.2    61  PHE61      -0.2867
      5  CB        18.0830   -4.2410    0.9020 C.3    61  PHE61       0.0534
      6  CG        18.6420   -5.5660    0.4550 C.ar   61  PHE61      -0.0203
      7  CD1       18.6570   -5.9150   -0.8910 C.ar   61  PHE61      -0.0042
      8  CD2       19.1340   -6.4790    1.3900 C.ar   61  PHE61      -0.0042
      9  CE1       19.1530   -7.1580   -1.3010 C.ar   61  PHE61      -0.0003
     10  CE2       19.6320   -7.7220    0.9890 C.ar   61  PHE61      -0.0003
     11  CZ        19.6400   -8.0610   -0.3590 C.ar   61  PHE61      -0.0000
     12  N         31.3560   -6.7590    7.4700 N.3    95  GLU95      -0.1245
     13  CA        30.8690   -5.3820    7.3720 C.3    95  GLU95       0.1567
     14  C         31.2690   -4.6010    8.6180 C.2    95  GLU95       0.2260
     15  O         31.4530   -5.1810    9.6890 O.2    95  GLU95      -0.2867
     16  CB        29.3410   -5.3580    7.2610 C.3    95  GLU95       0.0388
     17  CG        28.7530   -6.2560    6.1930 C.3    95  GLU95       0.1160
     18  CD        29.2120   -5.9020    4.8000 C.2    95  GLU95       0.3649
     19  OE1       29.6600   -4.7530    4.5820 O.co2  95  GLU95      -0.2457
     20  OE2       29.1030   -6.7730    3.9130 O.co2  95  GLU95      -0.2457
     21  N         32.4430   -2.8580    5.1640 N.3    97  ASN97      -0.1240
     22  CA        33.6440   -2.9420    4.3310 C.3    97  ASN97       0.1653
     23  C         33.9220   -1.7100    3.4720 C.2    97  ASN97       0.2266
     24  O         34.9590   -1.6220    2.8140 O.2    97  ASN97      -0.2867
     25  CB        33.6020   -4.1950    3.4470 C.3    97  ASN97       0.1155
     26  CG        32.2810   -4.3620    2.7190 C.2    97  ASN97       0.2627
     27  OD1       31.5150   -3.4130    2.5720 O.2    97  ASN97      -0.2716
     28  ND2       32.0200   -5.5770    2.2400 N.am   97  ASN97      -0.0877
     29  N         33.2230   -0.7550    0.6120 N.3    99  VAL99      -0.1245
     30  CA        33.6550   -0.9330   -0.7750 C.3    99  VAL99       0.1561
     31  C         33.0610    0.1180   -1.7160 C.2    99  VAL99       0.2260
     32  O         31.8510    0.3390   -1.7470 O.2    99  VAL99      -0.2867
     33  CB        33.3250   -2.3550   -1.3140 C.3    99  VAL99       0.0252
     34  CG1       33.3720   -3.3690   -0.1850 C.3    99  VAL99       0.0019
     35  CG2       31.9920   -2.3640   -2.0090 C.3    99  VAL99       0.0019
     36  N         31.0140    3.1350    0.9820 N.3   102  GLU102     -0.1245
     37  CA        29.6590    2.8340    1.4240 C.3   102  GLU102      0.1567
     38  C         29.5270    3.5100    2.7710 C.2   102  GLU102      0.2260
     39  O         30.1320    3.0760    3.7510 O.2   102  GLU102     -0.2867
     40  CB        29.4750    1.3220    1.5340 C.3   102  GLU102      0.0388
     41  CG        29.7830    0.6190    0.2240 C.3   102  GLU102      0.1160
     42  CD        29.5430   -0.8690    0.2700 C.2   102  GLU102      0.3649
     43  OE1       29.9680   -1.5030    1.2530 O.co2 102  GLU102     -0.2457
     44  OE2       28.9360   -1.4050   -0.6830 O.co2 102  GLU102     -0.2457
     45  N         22.1600   -0.2060    6.2130 N.3   106  GLU106     -0.1245
     46  CA        20.8780   -0.8040    5.8620 C.3   106  GLU106      0.1567
     47  C         20.7340   -2.1160    6.6060 C.2   106  GLU106      0.2260
     48  O         21.7290   -2.6950    7.0480 O.2   106  GLU106     -0.2867
     49  CB        20.8270   -1.1280    4.3690 C.3   106  GLU106      0.0388
     50  CG        21.9760   -2.0410    3.9440 C.3   106  GLU106      0.1160
     51  CD        21.7460   -2.7850    2.6370 C.2   106  GLU106      0.3649
     52  OE1       22.7190   -3.3880    2.1440 O.co2 106  GLU106     -0.2457
     53  OE2       20.6140   -2.7820    2.1080 O.co2 106  GLU106     -0.2457
     54  N         20.2710   -5.7590    6.2630 N.3   108  SER108     -0.1217
     55  CA        20.5240   -6.6730    5.1620 C.3   108  SER108      0.1889
     56  C         20.6280   -8.0920    5.7010 C.2   108  SER108      0.2288
     57  O         21.5980   -8.4410    6.3750 O.2   108  SER108     -0.2866
     58  CB        21.8250   -6.2880    4.4520 C.3   108  SER108      0.2089
     59  OG        22.1040   -7.1700    3.3800 O.3   108  SER108     -0.2183
     60  N         24.5050   -3.7960    6.9150 N.3   113  ASN113     -0.1225
     61  CA        25.5060   -3.7070    5.8740 C.3   113  ASN113      0.1785
     62  C         25.6790   -2.2380    5.5250 C.2   113  ASN113      0.2597
     63  O         24.7310   -1.4590    5.6120 O.2   113  ASN113     -0.2718
     64  CB        25.0680   -4.4660    4.6200 C.3   113  ASN113      0.1169
     65  CG        25.9610   -4.1710    3.4320 C.2   113  ASN113      0.2627
     66  OD1       27.1830   -4.2000    3.5500 O.2   113  ASN113     -0.2716
     67  ND2       25.3580   -3.8840    2.2840 N.am  113  ASN113     -0.0877
     68  N         26.8960   -1.8430    5.1740 N.am  114  ASP114     -0.1960
     69  CA        27.0980   -0.4670    4.7620 C.3   114  ASP114      0.1840
     70  C         27.0010   -0.5450    3.2420 C.2   114  ASP114      0.2622
     71  O         27.5230   -1.4770    2.6310 O.2   114  ASP114     -0.2715
     72  CB        28.4560    0.0730    5.2490 C.3   114  ASP114      0.1450
     73  CG        29.6420   -0.7180    4.7350 C.2   114  ASP114      0.3671
     74  OD1       29.5190   -1.9370    4.4950 O.co2 114  ASP114     -0.2456
     75  OD2       30.7200   -0.1050    4.5920 O.co2 114  ASP114     -0.2456
     76  N         26.2860    0.3940    2.6330 N.am  115  ASP115     -0.1957
     77  CA        26.1200    0.3740    1.1860 C.3   115  ASP115      0.1840
     78  C         26.1550    1.7800    0.5980 C.2   115  ASP115      0.2621
     79  O         26.2310    2.7730    1.3280 O.2   115  ASP115     -0.2715
     80  CB        24.7920   -0.3050    0.8270 C.3   115  ASP115      0.1450
     81  CG        24.8410   -1.0290   -0.5090 C.2   115  ASP115      0.3671
     82  OD1       25.8030   -0.8130   -1.2730 O.co2 115  ASP115     -0.2456
     83  OD2       23.9090   -1.8110   -0.7960 O.co2 115  ASP115     -0.2456
     84  N         26.1080    1.8550   -0.7290 N.am  116  LYS116     -0.1977
     85  CA        26.1300    3.1390   -1.4260 C.3   116  LYS116      0.1596
     86  C         24.9140    3.9580   -1.0200 C.2   116  LYS116      0.2287
     87  O         23.7730    3.5410   -1.2320 O.2   116  LYS116     -0.2864
     88  CB        26.1020    2.9250   -2.9410 C.3   116  LYS116      0.0298
     89  CG        27.1120    1.9160   -3.4680 C.3   116  LYS116      0.0038
     90  CD        28.5490    2.3270   -3.1680 C.3   116  LYS116      0.0206
     91  CE        29.5360    1.3760   -3.8480 C.3   116  LYS116      0.1093
     92  NZ        29.3560   -0.0440   -3.4140 N.3   116  LYS116     -0.1314
     93  N         22.1290    4.3850   -3.5470 N.3   119  LEU119     -0.1245
     94  CA        21.3480    3.2440   -3.9940 C.3   119  LEU119      0.1561
     95  C         19.9610    3.4160   -3.3930 C.2   119  LEU119      0.2260
     96  O         19.8220    3.9370   -2.2890 O.2   119  LEU119     -0.2867
     97  CB        21.9550    1.9310   -3.4890 C.3   119  LEU119      0.0270
     98  CG        23.0060    1.2410   -4.3610 C.3   119  LEU119      0.0019
     99  CD1       23.5640    0.0310   -3.6180 C.3   119  LEU119      0.0001
    100  CD2       22.3780    0.8090   -5.6850 C.3   119  LEU119      0.0001
    101  N         16.6040    2.0290   -1.6850 N.3   121  LYS121     -0.1245
    102  CA        16.2200    0.9050   -0.8440 C.3   121  LYS121      0.1561
    103  C         14.9430    1.2820   -0.1160 C.2   121  LYS121      0.2260
    104  O         14.5210    2.4370   -0.1330 O.2   121  LYS121     -0.2867
    105  CB        17.2970    0.6110    0.2070 C.3   121  LYS121      0.0271
    106  CG        18.6620    0.2190   -0.3400 C.3   121  LYS121      0.0035
    107  CD        19.6560    0.0270    0.7950 C.3   121  LYS121      0.0206
    108  CE        21.0600   -0.2240    0.2750 C.3   121  LYS121      0.1093
    109  NZ        21.2010   -1.5780   -0.3230 N.3   121  LYS121     -0.1314
@<TRIPOS>BOND
     1   100    98    1
     2    98    99    1
     3    98    97    1
     4    94    93    1
     5    94    97    1
     6    94    95    1
     7    91    92    1
     8    91    90    1
     9    89    90    1
    10    89    88    1
    11    95    96    2
    12    88    85    1
    13    35    33    1
    14    32    31    2
    15    31    30    1
    16   101   102    1
    17    85    86    1
    18    85    84    1
    19    33    30    1
    20    33    34    1
    21     9     7   ar
    22     9    11   ar
    23    82    81   ar
    24    87    86    2
    25     7     6   ar
    26   102   103    1
    27   102   105    1
    28    83    81   ar
    29    30    29    1
    30    84    78   am
    31    44    42   ar
    32    81    80    1
    33    11    10   ar
    34   106   105    1
    35   106   107    1
    36   109   108    1
    37   104   103    2
    38    41    42    1
    39    41    40    1
    40    42    43   ar
    41   108   107    1
    42     6     5    1
    43     6     8   ar
    44    78    77    1
    45    78    79    2
    46    80    77    1
    47     5     2    1
    48    36    37    1
    49    10     8   ar
    50    77    76    1
    51    37    40    1
    52    37    38    1
    53     1     2    1
    54     4     3    2
    55     2     3    1
    56    53    51   ar
    57    52    51   ar
    58    28    26   am
    59    67    65   am
    60    27    26    2
    61    71    70    2
    62    76    70   am
    63    51    50    1
    64    26    25    1
    65    38    39    2
    66    24    23    2
    67    70    69    1
    68    59    58    1
    69    65    66    2
    70    65    64    1
    71    25    22    1
    72    23    22    1
    73    20    18   ar
    74    50    49    1
    75    22    21    1
    76    49    46    1
    77    58    55    1
    78    74    73   ar
    79    19    18   ar
    80    75    73   ar
    81    64    61    1
    82    73    72    1
    83    69    68    1
    84    69    72    1
    85    18    17    1
    86    55    56    1
    87    55    54    1
    88    68    62   am
    89    62    63    2
    90    62    61    1
    91    56    57    2
    92    46    45    1
    93    46    47    1
    94    61    60    1
    95    17    16    1
    96    47    48    2
    97    16    13    1
    98    13    12    1
    99    13    14    1
   100    14    15    2
