@<TRIPOS>MOLECULE
tmp/1sl6E00.pdb
 89 81 0 0 0
SMALL
GASTEIGER

@<TRIPOS>ATOM
      1  N        126.9080   20.8630   35.9400 N.3    96  PHE96      -0.1241
      2  CA       125.6600   20.3600   36.5030 C.3    96  PHE96       0.1605
      3  C        125.4990   19.0220   35.7940 C.2    96  PHE96       0.2264
      4  O        125.4020   18.9750   34.5710 O.2    96  PHE96      -0.2867
      5  CB       124.4840   21.2640   36.1560 C.3    96  PHE96       0.0534
      6  CG       124.5400   22.6030   36.8060 C.ar   96  PHE96      -0.0203
      7  CD1      124.7860   23.7430   36.0510 C.ar   96  PHE96      -0.0042
      8  CD2      124.3330   22.7320   38.1780 C.ar   96  PHE96      -0.0042
      9  CE1      124.8210   25.0010   36.6560 C.ar   96  PHE96      -0.0003
     10  CE2      124.3660   23.9810   38.7890 C.ar   96  PHE96      -0.0003
     11  CZ       124.6090   25.1170   38.0300 C.ar   96  PHE96      -0.0000
     12  N        116.5540   22.1950   49.0210 N.3   130  GLU130     -0.1245
     13  CA       116.1710   21.2030   48.0110 C.3   130  GLU130      0.1567
     14  C        115.7830   19.8730   48.6690 C.2   130  GLU130      0.2260
     15  O        116.1500   19.6020   49.8100 O.2   130  GLU130     -0.2867
     16  CB       117.3390   20.9200   47.0480 C.3   130  GLU130      0.0388
     17  CG       118.0000   22.1280   46.3980 C.3   130  GLU130      0.1160
     18  CD       117.0610   22.9410   45.5200 C.2   130  GLU130      0.3649
     19  OE1      116.0080   22.4100   45.1060 O.co2 130  GLU130     -0.2457
     20  OE2      117.3930   24.1140   45.2290 O.co2 130  GLU130     -0.2457
     21  N        113.1270   21.2220   45.8980 N.3   132  ASN132     -0.1240
     22  CA       112.0190   22.1500   46.0290 C.3   132  ASN132      0.1653
     23  C        110.9370   21.9890   44.9670 C.2   132  ASN132      0.2266
     24  O        109.9720   22.7360   44.9590 O.2   132  ASN132     -0.2867
     25  CB       112.5520   23.5990   46.0660 C.3   132  ASN132      0.1155
     26  CG       113.3270   23.9900   44.8070 C.2   132  ASN132      0.2627
     27  OD1      113.5780   23.1660   43.9270 O.2   132  ASN132     -0.2716
     28  ND2      113.7110   25.2630   44.7250 N.am  132  ASN132     -0.0877
     29  N        110.4770   22.9750   42.2340 N.3   134  SER134     -0.1217
     30  CA       110.0960   24.2630   41.6650 C.3   134  SER134      0.1889
     31  C        109.7760   24.1920   40.1820 C.2   134  SER134      0.2288
     32  O        110.6730   24.1570   39.3530 O.2   134  SER134     -0.2866
     33  CB       111.2080   25.2750   41.9150 C.3   134  SER134      0.2089
     34  OG       110.7570   26.5890   41.6630 O.3   134  SER134     -0.2183
     35  N        110.0300   19.5530   39.3380 N.3   137  GLU137     -0.1245
     36  CA       111.3710   19.0530   39.0380 C.3   137  GLU137      0.1567
     37  C        111.5100   17.6410   39.6000 C.2   137  GLU137      0.2260
     38  O        111.4320   17.4210   40.8210 O.2   137  GLU137     -0.2867
     39  CB       112.4270   19.9790   39.6540 C.3   137  GLU137      0.0388
     40  CG       112.2440   21.4430   39.2840 C.3   137  GLU137      0.1160
     41  CD       113.3210   22.3420   39.8780 C.2   137  GLU137      0.3649
     42  OE1      113.5080   22.3160   41.1200 O.co2 137  GLU137     -0.2457
     43  OE2      113.9810   23.0710   39.0980 O.co2 137  GLU137     -0.2457
     44  N        120.4770   16.2430   40.1070 N.3   141  GLU141     -0.1245
     45  CA       121.6950   16.6630   39.4250 C.3   141  GLU141      0.1567
     46  C        122.7260   17.0890   40.4710 C.2   141  GLU141      0.2260
     47  O        122.3630   17.4950   41.5820 O.2   141  GLU141     -0.2867
     48  CB       121.3930   17.8620   38.5140 C.3   141  GLU141      0.0388
     49  CG       121.0920   19.1520   39.3010 C.3   141  GLU141      0.1160
     50  CD       120.8120   20.3810   38.4250 C.2   141  GLU141      0.3649
     51  OE1      120.7040   21.4800   38.9960 O.co2 141  GLU141     -0.2457
     52  OE2      120.6940   20.2670   37.1820 O.co2 141  GLU141     -0.2457
     53  N        124.9050   19.7150   41.8320 N.3   143  SER143     -0.1217
     54  CA       124.8250   21.1500   41.7020 C.3   143  SER143      0.1889
     55  C        125.6000   21.7970   42.8430 C.2   143  SER143      0.2288
     56  O        125.2320   21.6700   44.0170 O.2   143  SER143     -0.2866
     57  CB       123.3470   21.5630   41.7400 C.3   143  SER143      0.2089
     58  OG       123.1870   22.9670   41.6730 O.3   143  SER143     -0.2183
     59  N        120.5360   18.7810   43.5970 N.3   148  ASN148     -0.1225
     60  CA       119.4100   19.6470   43.3300 C.3   148  ASN148      0.1785
     61  C        118.4460   18.9170   42.4110 C.2   148  ASN148      0.2597
     62  O        118.8730   18.1330   41.5650 O.2   148  ASN148     -0.2718
     63  CB       119.8760   20.9340   42.6510 C.3   148  ASN148      0.1169
     64  CG       118.7140   21.7490   42.0870 C.2   148  ASN148      0.2627
     65  OD1      117.7240   22.0100   42.7830 O.2   148  ASN148     -0.2716
     66  ND2      118.8330   22.1580   40.8240 N.am  148  ASN148     -0.0877
     67  N        117.1480   19.1450   42.5920 N.am  149  ASP149     -0.1960
     68  CA       116.1790   18.5260   41.7040 C.3   149  ASP149      0.1840
     69  C        115.9310   19.5600   40.5990 C.2   149  ASP149      0.2622
     70  O        115.7960   20.7510   40.8700 O.2   149  ASP149     -0.2715
     71  CB       114.9020   18.1320   42.4610 C.3   149  ASP149      0.1450
     72  CG       114.1960   19.3110   43.1210 C.2   149  ASP149      0.3671
     73  OD1      114.8470   20.3120   43.4900 O.co2 149  ASP149     -0.2456
     74  OD2      112.9670   19.2140   43.2910 O.co2 149  ASP149     -0.2456
     75  N        115.9370   19.1080   39.3500 N.am  150  ASN150     -0.1972
     76  CA       115.7470   20.0070   38.2120 C.3   150  ASN150      0.1688
     77  C        114.7490   19.4110   37.2330 C.2   150  ASN150      0.2292
     78  O        114.4760   18.2150   37.2750 O.2   150  ASN150     -0.2864
     79  CB       117.0740   20.2030   37.4860 C.3   150  ASN150      0.1181
     80  CG       117.1950   21.5720   36.8230 C.2   150  ASN150      0.2629
     81  OD1      116.1970   22.2070   36.4480 O.2   150  ASN150     -0.2716
     82  ND2      118.4290   22.0230   36.6620 N.am  150  ASN150     -0.0877
     83  N        115.7940   19.7670   31.0060 N.3   154  VAL154     -0.1245
     84  CA       116.9760   20.6130   30.9770 C.3   154  VAL154      0.1561
     85  C        118.1800   19.8390   30.4420 C.2   154  VAL154      0.2260
     86  O        118.2760   18.6280   30.6310 O.2   154  VAL154     -0.2867
     87  CB       117.3090   21.1330   32.3980 C.3   154  VAL154      0.0252
     88  CG1      118.7100   21.7370   32.4240 C.3   154  VAL154      0.0019
     89  CG2      116.2810   22.1770   32.8230 C.3   154  VAL154      0.0019
@<TRIPOS>BOND
     1    85    86    2
     2    85    84    1
     3    84    83    1
     4    84    87    1
     5    87    88    1
     6    87    89    1
     7     4     3    2
     8     3     2    1
     9     1     2    1
    10     7     9   ar
    11     7     6   ar
    12     5     2    1
    13     5     6    1
    14    81    80    2
    15     9    11   ar
    16    82    80   am
    17     6     8   ar
    18    80    79    1
    19    52    50   ar
    20    77    78    2
    21    77    76    1
    22    79    76    1
    23    11    10   ar
    24     8    10   ar
    25    76    75    1
    26    50    51   ar
    27    50    49    1
    28    48    49    1
    29    48    45    1
    30    36    35    1
    31    36    37    1
    32    36    39    1
    33    43    41   ar
    34    40    39    1
    35    40    41    1
    36    75    69   am
    37    32    31    2
    38    45    44    1
    39    45    46    1
    40    37    38    2
    41    41    42   ar
    42    31    30    1
    43    46    47    2
    44    69    70    2
    45    69    68    1
    46    66    64   am
    47    62    61    2
    48    34    33    1
    49    30    33    1
    50    30    29    1
    51    58    57    1
    52    54    57    1
    53    54    53    1
    54    54    55    1
    55    68    71    1
    56    68    67    1
    57    64    63    1
    58    64    65    2
    59    61    67   am
    60    61    60    1
    61    71    72    1
    62    63    60    1
    63    55    56    2
    64    72    74   ar
    65    72    73   ar
    66    60    59    1
    67    27    26    2
    68    28    26   am
    69    26    25    1
    70    24    23    2
    71    23    22    1
    72    19    18   ar
    73    20    18   ar
    74    18    17    1
    75    21    22    1
    76    22    25    1
    77    17    16    1
    78    16    13    1
    79    13    14    1
    80    13    12    1
    81    14    15    2
