@<TRIPOS>MOLECULE
tmp/1sl9A00.pdb
 273 268 0 0 0
SMALL
GASTEIGER

@<TRIPOS>ATOM
      1  N         -5.0520    4.7830   34.6920 N.3    18  HIS18      -0.1241
      2  CA        -4.4550    3.8260   33.7020 C.3    18  HIS18       0.1621
      3  C         -5.0510    4.0030   32.3390 C.2    18  HIS18       0.2264
      4  O         -4.3400    3.7270   31.3530 O.2    18  HIS18      -0.2867
      5  CB        -4.6110    2.4140   34.2910 C.3    18  HIS18       0.0745
      6  CG        -3.6070    2.2060   35.3770 C.ar   18  HIS18       0.0817
      7  ND1       -2.2670    2.1410   35.0810 N.ar   18  HIS18      -0.2268
      8  CD2       -3.8290    2.1180   36.6950 C.ar   18  HIS18       0.1154
      9  CE1       -1.6420    1.9930   36.2590 C.ar   18  HIS18       0.1986
     10  NE2       -2.5710    1.9770   37.2670 N.ar   18  HIS18      -0.2212
     11  N         -3.0830    6.5800   30.7010 N.3    21  MET21      -0.1245
     12  CA        -1.7600    6.0300   30.2890 C.3    21  MET21       0.1570
     13  C         -1.8810    5.1100   29.0790 C.2    21  MET21       0.2261
     14  O         -1.0550    5.2300   28.1600 O.2    21  MET21      -0.2867
     15  CB        -1.0690    5.3450   31.4170 C.3    21  MET21       0.0387
     16  CG        -0.6310    6.2850   32.5600 C.3    21  MET21       0.0595
     17  SD         0.3630    7.6820   32.0510 S.3    21  MET21      -0.1393
     18  CE         1.7970    6.8380   31.3680 C.3    21  MET21       0.0692
     19  N         -2.4020    7.2120   26.0640 N.3    24  PHE24      -0.1227
     20  CA        -1.1270    7.8280   25.7260 C.3    24  PHE24       0.1736
     21  C         -0.1970    6.8790   25.0070 C.2    24  PHE24       0.2595
     22  O          0.4850    7.3060   24.0800 O.2    24  PHE24      -0.2718
     23  CB        -0.5340    8.3150   27.0580 C.3    24  PHE24       0.0547
     24  CG         0.9410    8.5440   27.1050 C.ar   24  PHE24      -0.0202
     25  CD1        1.5330    9.6280   26.5310 C.ar   24  PHE24      -0.0042
     26  CD2        1.7460    7.6420   27.7740 C.ar   24  PHE24      -0.0042
     27  CE1        2.8690    9.8370   26.5960 C.ar   24  PHE24      -0.0003
     28  CE2        3.0920    7.8280   27.8360 C.ar   24  PHE24      -0.0003
     29  CZ         3.6950    8.9270   27.2490 C.ar   24  PHE24      -0.0000
     30  N         -0.1720    5.6220   25.4170 N.am   25  LEU25      -0.1980
     31  CA         0.6180    4.6340   24.7230 C.3    25  LEU25       0.1596
     32  C          0.0500    4.2160   23.3850 C.2    25  LEU25       0.2287
     33  O          0.8250    3.8040   22.5190 O.2    25  LEU25      -0.2864
     34  CB         0.8270    3.4170   25.6150 C.3    25  LEU25       0.0297
     35  CG         1.6480    3.7030   26.8780 C.3    25  LEU25       0.0022
     36  CD1        1.6050    2.5180   27.8080 C.3    25  LEU25       0.0001
     37  CD2        3.0810    4.0370   26.5260 C.3    25  LEU25       0.0001
     38  N          6.1640   -0.7110   23.5400 N.3    38  ILE38      -0.1245
     39  CA         6.5720   -0.1780   24.8260 C.3    38  ILE38       0.1561
     40  C          8.0840   -0.2470   24.9210 C.2    38  ILE38       0.2260
     41  O          8.7340    0.6910   25.3600 O.2    38  ILE38      -0.2867
     42  CB         5.8170   -0.8740   25.9530 C.3    38  ILE38       0.0252
     43  CG1        4.4330   -0.2450   26.1850 C.3    38  ILE38       0.0019
     44  CG2        6.6160   -0.8780   27.2470 C.3    38  ILE38       0.0019
     45  CD1        3.5840    0.0550   24.9670 C.3    38  ILE38       0.0001
     46  N          9.7060    2.3060   22.6530 N.3    41  LYS41      -0.1231
     47  CA         9.6280    3.6250   23.2720 C.3    41  LYS41       0.1693
     48  C         10.7290    3.7490   24.3200 C.2    41  LYS41       0.2591
     49  O         11.4260    4.7510   24.3830 O.2    41  LYS41      -0.2718
     50  CB         8.2460    3.8060   23.8800 C.3    41  LYS41       0.0285
     51  CG         8.0320    5.1060   24.6250 C.3    41  LYS41       0.0035
     52  CD         6.6140    5.1710   25.1900 C.3    41  LYS41       0.0206
     53  CE         6.3380    6.4460   25.9630 C.3    41  LYS41       0.1093
     54  NZ         6.3210    7.6250   25.0200 N.3    41  LYS41      -0.1314
     55  N         10.8870    2.7090   25.1330 N.am   42  ALA42      -0.1980
     56  CA        11.9240    2.7020   26.1520 C.3    42  ALA42       0.1597
     57  C         13.3240    2.8340   25.5870 C.2    42  ALA42       0.2287
     58  O         14.1250    3.6300   26.0480 O.2    42  ALA42      -0.2864
     59  CB        11.8030    1.4290   26.9790 C.3    42  ALA42       0.0319
     60  N         13.4300    6.8220   24.2990 N.3    46  ILE46      -0.1245
     61  CA        13.8350    7.4480   25.5660 C.3    46  ILE46       0.1561
     62  C         15.3170    7.2520   25.8210 C.2    46  ILE46       0.2260
     63  O         16.0330    8.2280   26.0340 O.2    46  ILE46      -0.2867
     64  CB        12.9760    6.8670   26.6800 C.3    46  ILE46       0.0252
     65  CG1       11.5180    7.3070   26.5380 C.3    46  ILE46       0.0019
     66  CG2       13.5460    7.2360   28.0440 C.3    46  ILE46       0.0019
     67  CD1       10.5740    6.6060   27.4670 C.3    46  ILE46       0.0001
     68  N         17.8300   -1.0390   31.3820 N.3    60  HIS60      -0.1241
     69  CA        16.4770   -0.4150   31.3790 C.3    60  HIS60       0.1621
     70  C         15.5160   -1.2590   30.6050 C.2    60  HIS60       0.2264
     71  O         14.3640   -1.4700   31.0110 O.2    60  HIS60      -0.2867
     72  CB        16.6410    0.9860   30.8050 C.3    60  HIS60       0.0745
     73  CG        15.4010    1.8130   30.7980 C.ar   60  HIS60       0.0817
     74  ND1       14.5910    1.9040   29.6750 N.ar   60  HIS60      -0.2268
     75  CD2       14.8450    2.5850   31.7490 C.ar   60  HIS60       0.1154
     76  CE1       13.5850    2.7150   29.9670 C.ar   60  HIS60       0.1986
     77  NE2       13.7160    3.1450   31.2030 N.ar   60  HIS60      -0.2212
     78  N         11.9340   -2.7540   31.8940 N.3    64  VAL64      -0.1245
     79  CA        10.6470   -2.4180   31.2390 C.3    64  VAL64       0.1561
     80  C          9.9470   -3.6770   30.8180 C.2    64  VAL64       0.2260
     81  O          8.7520   -3.8480   30.9730 O.2    64  VAL64      -0.2867
     82  CB        10.9180   -1.4510   30.0690 C.3    64  VAL64       0.0252
     83  CG1        9.7290   -1.3090   29.1620 C.3    64  VAL64       0.0019
     84  CG2       11.3920   -0.1090   30.6030 C.3    64  VAL64       0.0019
     85  N          8.5420   -5.3210   33.8930 N.3    67  PHE67      -0.1227
     86  CA         7.4390   -4.5490   34.4390 C.3    67  PHE67       0.1736
     87  C          6.1650   -4.7790   33.6370 C.2    67  PHE67       0.2595
     88  O          5.1210   -5.1040   34.1820 O.2    67  PHE67      -0.2718
     89  CB         7.8360   -3.0680   34.4380 C.3    67  PHE67       0.0547
     90  CG         6.8080   -2.2030   35.1190 C.ar   67  PHE67      -0.0202
     91  CD1        6.8610   -2.0290   36.4710 C.ar   67  PHE67      -0.0042
     92  CD2        5.8240   -1.6020   34.4040 C.ar   67  PHE67      -0.0042
     93  CE1        5.9260   -1.2440   37.1130 C.ar   67  PHE67      -0.0003
     94  CE2        4.8710   -0.8300   35.0420 C.ar   67  PHE67      -0.0003
     95  CZ         4.9200   -0.6620   36.3900 C.ar   67  PHE67      -0.0000
     96  N          6.2390   -4.6060   32.3380 N.am   68  PHE68      -0.1976
     97  CA         5.0550   -4.7110   31.5190 C.3    68  PHE68       0.1639
     98  C          4.6230   -6.1420   31.2920 C.2    68  PHE68       0.2290
     99  O          3.4450   -6.4300   31.1300 O.2    68  PHE68      -0.2864
    100  CB         5.2380   -3.9120   30.2040 C.3    68  PHE68       0.0560
    101  CG         5.1380   -2.4040   30.4850 C.ar   68  PHE68      -0.0200
    102  CD1        6.2850   -1.6270   30.6150 C.ar   68  PHE68      -0.0042
    103  CD2        3.8850   -1.8210   30.6580 C.ar   68  PHE68      -0.0042
    104  CE1        6.1580   -0.2650   30.9210 C.ar   68  PHE68      -0.0003
    105  CE2        3.8000   -0.4880   30.9390 C.ar   68  PHE68      -0.0003
    106  CZ         4.9300    0.2960   31.1280 C.ar   68  PHE68      -0.0000
    107  N         -5.4380   -4.9790   29.7280 N.3    84  PHE84      -0.1241
    108  CA        -4.3340   -4.2250   30.3110 C.3    84  PHE84       0.1605
    109  C         -4.5880   -3.8640   31.7510 C.2    84  PHE84       0.2264
    110  O         -3.7270   -4.0410   32.6130 O.2    84  PHE84      -0.2867
    111  CB        -4.1010   -2.9740   29.4940 C.3    84  PHE84       0.0534
    112  CG        -2.9760   -2.0610   29.8340 C.ar   84  PHE84      -0.0203
    113  CD1       -1.6790   -2.4240   29.5110 C.ar   84  PHE84      -0.0042
    114  CD2       -3.2310   -0.8220   30.4000 C.ar   84  PHE84      -0.0042
    115  CE1       -0.6230   -1.5300   29.7600 C.ar   84  PHE84      -0.0003
    116  CE2       -2.2080    0.0120   30.6550 C.ar   84  PHE84      -0.0003
    117  CZ        -0.9140   -0.3130   30.3250 C.ar   84  PHE84      -0.0000
    118  N         -2.7110   -4.8690   35.3000 N.3    88  TRP88      -0.1241
    119  CA        -2.2850   -3.9380   36.3350 C.3    88  TRP88       0.1605
    120  C         -2.7780   -4.4030   37.7170 C.2    88  TRP88       0.2264
    121  O         -2.0240   -4.2110   38.6710 O.2    88  TRP88      -0.2867
    122  CB        -2.7560   -2.5310   36.0110 C.3    88  TRP88       0.0550
    123  CG        -1.7450   -1.8010   35.1990 C.ar   88  TRP88       0.0003
    124  CD1       -1.7140   -1.7040   33.8480 C.ar   88  TRP88       0.0946
    125  CD2       -0.6160   -1.0920   35.6960 C.ar   88  TRP88       0.0152
    126  NE1       -0.6370   -0.9710   33.4700 N.ar   88  TRP88      -0.2442
    127  CE2        0.0490   -0.5840   34.5700 C.ar   88  TRP88       0.0810
    128  CE3       -0.1180   -0.8400   36.9500 C.ar   88  TRP88       0.0012
    129  CZ2        1.1990    0.1590   34.7090 C.ar   88  TRP88       0.0191
    130  CZ3        1.0380   -0.0780   37.0460 C.ar   88  TRP88       0.0001
    131  CH2        1.6930    0.4240   35.9380 C.ar   88  TRP88       0.0015
    132  N          8.7100   -1.8560   39.9880 N.3   107  ILE107     -0.1245
    133  CA         8.6880   -0.4010   39.7720 C.3   107  ILE107      0.1561
    134  C          9.9440    0.2040   40.3730 C.2   107  ILE107      0.2260
    135  O         10.4620    1.1620   39.8450 O.2   107  ILE107     -0.2867
    136  CB         7.3780    0.2160   40.2890 C.3   107  ILE107      0.0252
    137  CG1        7.2350    1.6870   39.8880 C.3   107  ILE107      0.0019
    138  CG2        7.1430    0.0570   41.7740 C.3   107  ILE107      0.0019
    139  CD1        7.3410    2.0500   38.4330 C.3   107  ILE107      0.0001
    140  N         12.7970   -0.6170   37.7990 N.3   110  TRP110     -0.1227
    141  CA        12.6950    0.3280   36.7120 C.3   110  TRP110      0.1737
    142  C         13.2230    1.6890   37.1400 C.2   110  TRP110      0.2596
    143  O         14.0350    2.2940   36.4170 O.2   110  TRP110     -0.2718
    144  CB        11.2200    0.3770   36.2450 C.3   110  TRP110      0.0564
    145  CG        11.0700    1.1370   34.9790 C.ar  110  TRP110      0.0003
    146  CD1       12.0090    1.6430   34.1260 C.ar  110  TRP110      0.0946
    147  CD2        9.7930    1.4860   34.4020 C.ar  110  TRP110      0.0152
    148  NE1       11.4080    2.2850   33.0830 N.ar  110  TRP110     -0.2442
    149  CE2       10.0710    2.2000   33.2130 C.ar  110  TRP110      0.0810
    150  CE3        8.4670    1.2730   34.7620 C.ar  110  TRP110      0.0012
    151  CZ2        9.0660    2.6930   32.3910 C.ar  110  TRP110      0.0191
    152  CZ3        7.4870    1.7610   33.9390 C.ar  110  TRP110      0.0001
    153  CH2        7.7820    2.4560   32.7840 C.ar  110  TRP110      0.0015
    154  N         12.8220    2.1870   38.2880 N.am  111  GLY111     -0.1957
    155  CA        13.3470    3.4390   38.7600 C.3   111  GLY111      0.1869
    156  C         14.8770    3.4260   38.8660 C.2   111  GLY111      0.2309
    157  O         15.5350    4.3720   38.4900 O.2   111  GLY111     -0.2863
    158  N         16.2530    3.9830   35.4840 N.3   114  VAL114     -0.1231
    159  CA        16.0540    5.3340   34.9920 C.3   114  VAL114      0.1692
    160  C         16.9970    6.2910   35.6990 C.2   114  VAL114      0.2592
    161  O         17.6740    7.1090   35.0790 O.2   114  VAL114     -0.2718
    162  CB        14.5840    5.7870   35.1560 C.3   114  VAL114      0.0266
    163  CG1       14.4440    7.2470   34.7800 C.3   114  VAL114      0.0020
    164  CG2       13.6660    4.9780   34.3080 C.3   114  VAL114      0.0020
    165  N         17.0510    6.1360   37.0080 N.am  115  PHE115     -0.1976
    166  CA        17.8810    7.0340   37.7910 C.3   115  PHE115      0.1639
    167  C         19.3370    6.8860   37.4050 C.2   115  PHE115      0.2290
    168  O         20.0920    7.8530   37.3880 O.2   115  PHE115     -0.2864
    169  CB        17.7430    6.7640   39.2990 C.3   115  PHE115      0.0560
    170  CG        16.5540    7.4970   39.9030 C.ar  115  PHE115     -0.0200
    171  CD1       15.2670    7.3140   39.5000 C.ar  115  PHE115     -0.0042
    172  CD2       16.7770    8.4040   40.9180 C.ar  115  PHE115     -0.0042
    173  CE1       14.2390    8.0150   40.0790 C.ar  115  PHE115     -0.0003
    174  CE2       15.7560    9.1020   41.4970 C.ar  115  PHE115     -0.0003
    175  CZ        14.4650    8.8900   41.0800 C.ar  115  PHE115     -0.0000
    176  N         14.2850   15.5210   35.6760 N.3   126  TRP126     -0.1241
    177  CA        12.9100   15.0770   35.6400 C.3   126  TRP126      0.1605
    178  C         12.1440   15.8260   34.5440 C.2   126  TRP126      0.2264
    179  O         11.3330   15.2400   33.8410 O.2   126  TRP126     -0.2867
    180  CB        12.2630   15.2500   37.0000 C.3   126  TRP126      0.0550
    181  CG        10.8690   14.7110   37.0650 C.ar  126  TRP126      0.0003
    182  CD1        9.7360   15.3970   37.3730 C.ar  126  TRP126      0.0946
    183  CD2       10.4460   13.3620   36.8390 C.ar  126  TRP126      0.0152
    184  NE1        8.6530   14.5960   37.3380 N.ar  126  TRP126     -0.2442
    185  CE2        9.0630   13.3420   37.0190 C.ar  126  TRP126      0.0810
    186  CE3       11.1050   12.1840   36.5010 C.ar  126  TRP126      0.0012
    187  CZ2        8.3250   12.1690   36.8730 C.ar  126  TRP126      0.0191
    188  CZ3       10.3850   11.0100   36.3460 C.ar  126  TRP126      0.0001
    189  CH2        9.0110   11.0420   36.5390 C.ar  126  TRP126      0.0015
    190  N         12.9780   14.1150   31.3740 N.3   129  TYR129     -0.1241
    191  CA        12.2910   12.8440   31.3160 C.3   129  TYR129      0.1605
    192  C         10.8390   13.0680   30.9280 C.2   129  TYR129      0.2264
    193  O         10.2690   12.3490   30.1190 O.2   129  TYR129     -0.2867
    194  CB        12.3900   12.0580   32.6660 C.3   129  TYR129      0.0534
    195  CG        11.7330   10.7070   32.4190 C.ar  129  TYR129     -0.0201
    196  CD1       12.4520    9.7150   31.7610 C.ar  129  TYR129     -0.0009
    197  CD2       10.4210   10.4510   32.8350 C.ar  129  TYR129     -0.0009
    198  CE1       11.9010    8.4820   31.5220 C.ar  129  TYR129      0.0417
    199  CE2        9.8710    9.2270   32.5550 C.ar  129  TYR129      0.0417
    200  CZ        10.5930    8.2430   31.9070 C.ar  129  TYR129      0.1957
    201  OH        10.0090    7.0470   31.6420 O.3   129  TYR129     -0.2866
    202  N          9.9150   11.0750   27.5920 N.3   133  SER133     -0.1217
    203  CA         8.9500    9.9880   27.7270 C.3   133  SER133      0.1889
    204  C          7.5710   10.4400   27.2880 C.2   133  SER133      0.2288
    205  O          6.7770    9.6160   26.9330 O.2   133  SER133     -0.2866
    206  CB         8.8890    9.4860   29.1660 C.3   133  SER133      0.2089
    207  OG         8.1960   10.3860   29.9810 O.3   133  SER133     -0.2183
    208  N          5.4060   11.6150   29.3260 N.3   135  ILE135     -0.1245
    209  CA         4.4040   11.4340   30.3780 C.3   135  ILE135      0.1561
    210  C          4.0350   12.7570   31.0110 C.2   135  ILE135      0.2260
    211  O          2.9380   12.9060   31.5390 O.2   135  ILE135     -0.2867
    212  CB         4.9100   10.4530   31.4290 C.3   135  ILE135      0.0252
    213  CG1        3.7660    9.9520   32.2950 C.3   135  ILE135      0.0019
    214  CG2        6.0370   11.0080   32.2840 C.3   135  ILE135      0.0019
    215  CD1        4.0790    8.7050   33.0900 C.3   135  ILE135      0.0001
    216  N         15.2690    7.7570   44.5640 N.3   159  VAL159     -0.1245
    217  CA        14.5020    6.6660   44.0500 C.3   159  VAL159      0.1561
    218  C         13.6460    5.9900   45.1090 C.2   159  VAL159      0.2260
    219  O         12.5670    5.4580   44.7670 O.2   159  VAL159     -0.2867
    220  CB        15.4340    5.6230   43.3770 C.3   159  VAL159      0.0252
    221  CG1       16.2240    4.9090   44.4810 C.3   159  VAL159      0.0019
    222  CG2       14.5630    4.7430   42.4830 C.3   159  VAL159      0.0019
    223  N         10.6580    8.1890   45.2170 N.3   162  MET162     -0.1230
    224  CA         9.8200    8.0830   44.0160 C.3   162  MET162      0.1702
    225  C          9.0930    6.7480   43.9710 C.2   162  MET162      0.2593
    226  O          7.9720    6.6550   43.4590 O.2   162  MET162     -0.2718
    227  CB        10.6770    8.3210   42.7680 C.3   162  MET162      0.0401
    228  CG         9.8890    8.4740   41.4900 C.3   162  MET162      0.0596
    229  SD         8.5550    9.6610   41.5990 S.3   162  MET162     -0.1393
    230  CE         8.4700   10.0590   39.8600 C.3   162  MET162      0.0692
    231  N          9.7270    5.6900   44.4840 N.am  163  THR163     -0.1953
    232  CA         9.1330    4.3670   44.4850 C.3   163  THR163      0.1897
    233  C          7.9550    4.3150   45.4490 C.2   163  THR163      0.2313
    234  O          6.8990    3.7900   45.0930 O.2   163  THR163     -0.2863
    235  CB        10.1630    3.2840   44.8370 C.3   163  THR163      0.1794
    236  OG1       11.1360    3.2670   43.8040 O.3   163  THR163     -0.2208
    237  CG2        9.4830    1.9430   44.9250 C.3   163  THR163      0.0378
    238  N          5.3030    6.0460   43.6260 N.3   166  HIS166     -0.1241
    239  CA         4.7340    5.2230   42.5520 C.3   166  HIS166      0.1621
    240  C          3.9460    4.0290   43.0200 C.2   166  HIS166      0.2264
    241  O          2.9990    3.7090   42.3360 O.2   166  HIS166     -0.2867
    242  CB         5.9230    4.6610   41.6800 C.3   166  HIS166      0.0745
    243  CG         6.3460    5.6240   40.6790 C.ar  166  HIS166      0.0817
    244  ND1        7.7100    5.5430   40.1150 N.ar  166  HIS166     -0.2268
    245  CD2        5.6470    6.6470   40.0250 C.ar  166  HIS166      0.1154
    246  CE1        7.6610    6.4620   39.1340 C.ar  166  HIS166      0.1986
    247  NE2        6.4650    7.1230   39.0020 N.ar  166  HIS166     -0.2212
    248  N          0.4990    4.3540   41.1450 N.3   170  TRP170     -0.1241
    249  CA         0.1220    3.3900   40.1320 C.3   170  TRP170      0.1605
    250  C         -0.6520    2.1870   40.6980 C.2   170  TRP170      0.2264
    251  O         -1.4580    1.6520   39.9460 O.2   170  TRP170     -0.2867
    252  CB         1.3140    2.8790   39.3780 C.3   170  TRP170      0.0550
    253  CG         2.1200    3.9060   38.6230 C.ar  170  TRP170      0.0003
    254  CD1        3.4640    4.1070   38.7440 C.ar  170  TRP170      0.0946
    255  CD2        1.6410    4.8260   37.6480 C.ar  170  TRP170      0.0152
    256  NE1        3.8860    5.0970   37.9090 N.ar  170  TRP170     -0.2442
    257  CE2        2.7780    5.5730   37.2220 C.ar  170  TRP170      0.0810
    258  CE3        0.4020    5.1260   37.0860 C.ar  170  TRP170      0.0012
    259  CZ2        2.6830    6.5780   36.2650 C.ar  170  TRP170      0.0191
    260  CZ3        0.3160    6.1120   36.1510 C.ar  170  TRP170      0.0001
    261  CH2        1.4470    6.8300   35.7520 C.ar  170  TRP170      0.0015
    262  N          2.3100   13.6050   39.3600 N.3   181  TYR181     -0.1241
    263  CA         2.6830   14.0660   38.0260 C.3   181  TYR181      0.1605
    264  C          1.9660   15.3670   37.7540 C.2   181  TYR181      0.2264
    265  O          1.7410   15.7250   36.6150 O.2   181  TYR181     -0.2867
    266  CB         2.3590   13.0210   36.9530 C.3   181  TYR181      0.0534
    267  CG         3.2570   11.8130   36.9980 C.ar  181  TYR181     -0.0201
    268  CD1        3.0430   10.7450   37.8390 C.ar  181  TYR181     -0.0009
    269  CD2        4.3730   11.7970   36.1330 C.ar  181  TYR181     -0.0009
    270  CE1        3.9130    9.6860   37.8290 C.ar  181  TYR181      0.0417
    271  CE2        5.2420   10.7190   36.1470 C.ar  181  TYR181      0.0417
    272  CZ         5.0060    9.6710   36.9940 C.ar  181  TYR181      0.1957
    273  OH         5.9130    8.6110   36.9390 O.3   181  TYR181     -0.2866
@<TRIPOS>BOND
     1    33    32    2
     2    46    47    1
     3    47    50    1
     4    47    48    1
     5    32    31    1
     6    38    39    1
     7    50    51    1
     8    22    21    2
     9    60    61    1
    10    48    49    2
    11    48    55   am
    12    51    52    1
    13    31    30    1
    14    31    34    1
    15    39    40    1
    16    39    42    1
    17    40    41    2
    18    45    43    1
    19    21    30   am
    20    21    20    1
    21    54    53    1
    22    55    56    1
    23    52    53    1
    24    61    62    1
    25    61    64    1
    26    57    58    2
    27    57    56    1
    28    34    35    1
    29    20    19    1
    30    20    23    1
    31    62    63    2
    32    42    43    1
    33    42    44    1
    34    56    59    1
    35    37    35    1
    36    25    27   ar
    37    25    24   ar
    38    65    64    1
    39    65    67    1
    40    27    29   ar
    41    64    66    1
    42    35    36    1
    43   205   204    2
    44    23    24    1
    45    24    26   ar
    46    29    28   ar
    47   204   203    1
    48   202   203    1
    49   203   206    1
    50    26    28   ar
    51    14    13    2
    52    13    12    1
    53    83    82    1
    54   206   207    1
    55   208   209    1
    56   111   112    1
    57   111   108    1
    58   113   115   ar
    59   113   112   ar
    60    74    76   ar
    61    74    73   ar
    62   107   108    1
    63   115   117   ar
    64   112   114   ar
    65    76    77   ar
    66    82    84    1
    67    82    79    1
    68   193   192    2
    69   100   101    1
    70   100    97    1
    71    12    11    1
    72    12    15    1
    73   108   109    1
    74   117   116   ar
    75   209   210    1
    76   209   212    1
    77   114   116   ar
    78   101   102   ar
    79   101   103   ar
    80    70    71    2
    81    70    69    1
    82   102   104   ar
    83   103   105   ar
    84    73    72    1
    85    73    75   ar
    86    72    69    1
    87    80    81    2
    88    80    79    1
    89   104   106   ar
    90   192   191    1
    91   105   106   ar
    92   210   211    2
    93    99    98    2
    94    77    75   ar
    95    79    78    1
    96    98    97    1
    97   191   190    1
    98   191   194    1
    99     4     3    2
   100    18    17    1
   101    69    68    1
   102    15    16    1
   103   212   214    1
   104   212   213    1
   105    97    96    1
   106   198   196   ar
   107   198   200   ar
   108   201   200    1
   109   109   110    2
   110   196   195   ar
   111   200   199   ar
   112    17    16    1
   113   213   215    1
   114    96    87   am
   115     3     2    1
   116   151   153   ar
   117   151   149   ar
   118   195   194    1
   119   195   197   ar
   120   199   197   ar
   121   153   152   ar
   122   148   149   ar
   123   148   146   ar
   124   149   147   ar
   125   126   124   ar
   126   126   127   ar
   127    87    88    2
   128    87    86    1
   129     2     5    1
   130     2     1    1
   131   179   178    2
   132   124   123   ar
   133    85    86    1
   134   152   150   ar
   135   146   145   ar
   136     5     6    1
   137   164   162    1
   138   147   150   ar
   139   147   145   ar
   140    92    94   ar
   141    92    90   ar
   142    89    86    1
   143    89    90    1
   144   178   177    1
   145   127   129   ar
   146   127   125   ar
   147   129   131   ar
   148   163   162    1
   149   145   144    1
   150   159   162    1
   151   159   158    1
   152   159   160    1
   153    94    95   ar
   154   161   160    2
   155     7     6   ar
   156     7     9   ar
   157    90    91   ar
   158   123   125   ar
   159   123   122    1
   160   118   119    1
   161     6     8   ar
   162   177   176    1
   163   177   180    1
   164   125   128   ar
   165   160   165   am
   166   261   260   ar
   167   261   259   ar
   168   131   130   ar
   169   122   119    1
   170   269   271   ar
   171   269   267   ar
   172   271   272   ar
   173   260   258   ar
   174   144   141    1
   175     9    10   ar
   176   259   257   ar
   177   119   120    1
   178   188   186   ar
   179   188   189   ar
   180    95    93   ar
   181   143   142    2
   182    91    93   ar
   183   186   183   ar
   184   189   187   ar
   185   265   264    2
   186     8    10   ar
   187   141   142    1
   188   141   140    1
   189   183   185   ar
   190   183   181   ar
   191   187   185   ar
   192   273   272    1
   193   128   130   ar
   194   266   267    1
   195   266   263    1
   196   272   270   ar
   197   267   268   ar
   198   180   181    1
   199   165   166    1
   200   185   184   ar
   201   181   182   ar
   202   258   255   ar
   203   142   154   am
   204   257   255   ar
   205   257   256   ar
   206   184   182   ar
   207   168   167    2
   208   167   166    1
   209   255   253   ar
   210   120   121    2
   211   264   263    1
   212   166   169    1
   213   270   268   ar
   214   256   254   ar
   215   263   262    1
   216   154   155    1
   217   139   137    1
   218   157   156    2
   219   253   254   ar
   220   253   252    1
   221   155   156    1
   222   247   246   ar
   223   247   245   ar
   224   246   244   ar
   225   169   170    1
   226   252   249    1
   227   171   170   ar
   228   171   173   ar
   229   133   132    1
   230   133   136    1
   231   133   134    1
   232   135   134    2
   233   230   229    1
   234   137   136    1
   235   170   172   ar
   236   251   250    2
   237   245   243   ar
   238   173   175   ar
   239   244   243   ar
   240   249   250    1
   241   249   248    1
   242   136   138    1
   243   243   242    1
   244   172   174   ar
   245   175   174   ar
   246   228   229    1
   247   228   227    1
   248   242   239    1
   249   241   240    2
   250   222   220    1
   251   239   240    1
   252   239   238    1
   253   227   224    1
   254   220   217    1
   255   220   221    1
   256   226   225    2
   257   236   235    1
   258   225   224    1
   259   225   231   am
   260   224   223    1
   261   217   216    1
   262   217   218    1
   263   231   232    1
   264   232   235    1
   265   232   233    1
   266   219   218    2
   267   235   237    1
   268   234   233    2
