@<TRIPOS>MOLECULE
tmp/1slbC00.pdb
 104 97 0 0 0
SMALL
GASTEIGER

@<TRIPOS>ATOM
      1  N         38.9510   34.0140   13.1190 N.3    31  LEU31      -0.1245
      2  CA        38.9530   32.6530   13.6120 C.3    31  LEU31       0.1561
      3  C         37.5790   32.0220   13.6330 C.2    31  LEU31       0.2260
      4  O         36.5550   32.7070   13.4820 O.2    31  LEU31      -0.2867
      5  CB        39.5630   32.6160   15.0210 C.3    31  LEU31       0.0270
      6  CG        38.8320   33.4340   16.0930 C.3    31  LEU31       0.0019
      7  CD1       38.2620   32.5080   17.1660 C.3    31  LEU31       0.0001
      8  CD2       39.7610   34.4650   16.7050 C.3    31  LEU31       0.0001
      9  N         40.0020   24.8270   16.4910 N.3    44  HIS44      -0.1241
     10  CA        40.2510   26.2510   16.6200 C.3    44  HIS44       0.1621
     11  C         40.9820   26.5730   15.3200 C.2    44  HIS44       0.2264
     12  O         42.1380   26.2090   15.1660 O.2    44  HIS44      -0.2867
     13  CB        41.1330   26.5270   17.8390 C.3    44  HIS44       0.0745
     14  CG        41.6220   27.9360   17.9270 C.ar   44  HIS44       0.0817
     15  ND1       40.7730   29.0200   17.9310 N.ar   44  HIS44      -0.2268
     16  CD2       42.8760   28.4430   17.9730 C.ar   44  HIS44       0.1154
     17  CE1       41.4800   30.1360   17.9710 C.ar   44  HIS44       0.1986
     18  NE2       42.7580   29.8130   17.9960 N.ar   44  HIS44      -0.2212
     19  N         42.4350   29.2580   12.9250 N.3    46  ASN46      -0.1240
     20  CA        42.8910   30.6390   13.0540 C.3    46  ASN46       0.1653
     21  C         43.8350   31.1550   11.9730 C.2    46  ASN46       0.2266
     22  O         45.0560   31.0660   12.1030 O.2    46  ASN46      -0.2867
     23  CB        43.5240   30.8510   14.4380 C.3    46  ASN46       0.1155
     24  CG        43.8880   32.3110   14.7150 C.2    46  ASN46       0.2627
     25  OD1       44.6070   32.6030   15.6680 O.2    46  ASN46      -0.2716
     26  ND2       43.3550   33.2310   13.9230 N.am   46  ASN46      -0.0877
     27  N         46.0870   33.5330   10.3530 N.3    48  ARG48      -0.1245
     28  CA        46.8090   34.7150   10.8070 C.3    48  ARG48       0.1563
     29  C         47.5240   35.4500    9.6840 C.2    48  ARG48       0.2260
     30  O         48.4940   34.9360    9.1290 O.2    48  ARG48      -0.2867
     31  CB        47.8360   34.3290   11.8730 C.3    48  ARG48       0.0307
     32  CG        47.2760   34.1200   13.2630 C.3    48  ARG48       0.0489
     33  CD        47.7650   32.8090   13.8440 C.3    48  ARG48       0.2205
     34  NE        48.2920   32.9410   15.1940 N.pl3  48  ARG48      -0.0865
     35  CZ        47.8940   32.2090   16.2350 C.cat  48  ARG48       0.5346
     36  NH1       46.9340   31.3070   16.0970 N.pl3  48  ARG48       0.1354
     37  NH2       48.4410   32.3960   17.4310 N.pl3  48  ARG48       0.1354
     38  N         50.3780   37.4670   16.4210 N.3    52  HIS52      -0.1241
     39  CA        51.0080   36.5220   17.3380 C.3    52  HIS52       0.1621
     40  C         52.3670   35.9780   16.8920 C.2    52  HIS52       0.2264
     41  O         52.9010   35.0580   17.5080 O.2    52  HIS52      -0.2867
     42  CB        50.0450   35.3720   17.6670 C.3    52  HIS52       0.0745
     43  CG        48.7660   35.8250   18.3000 C.ar   52  HIS52       0.0817
     44  ND1       48.6900   36.2460   19.6130 N.ar   52  HIS52      -0.2268
     45  CD2       47.5160   35.9610   17.7910 C.ar   52  HIS52       0.1154
     46  CE1       47.4520   36.6260   19.8820 C.ar   52  HIS52       0.1986
     47  NE2       46.7200   36.4630   18.7940 N.ar   52  HIS52      -0.2212
     48  N         52.8670   35.2340   13.6680 N.3    54  ASP54      -0.1239
     49  CA        52.5550   34.4590   12.4840 C.3    54  ASP54       0.1674
     50  C         52.1940   35.3840   11.3460 C.2    54  ASP54       0.2266
     51  O         51.4470   36.3510   11.5220 O.2    54  ASP54      -0.2867
     52  CB        51.4080   33.4980   12.7550 C.3    54  ASP54       0.1410
     53  CG        51.8900   32.1400   13.1780 C.2    54  ASP54       0.3668
     54  OD1       52.3310   31.3800   12.2880 O.co2  54  ASP54      -0.2456
     55  OD2       51.8350   31.8360   14.3900 O.co2  54  ASP54      -0.2456
     56  N         46.7240   28.8330   11.6360 N.3    59  VAL59      -0.1245
     57  CA        47.0390   28.0770   12.8400 C.3    59  VAL59       0.1561
     58  C         45.7560   27.3830   13.2840 C.2    59  VAL59       0.2260
     59  O         44.7000   28.0120   13.3810 O.2    59  VAL59      -0.2867
     60  CB        47.5450   28.9880   13.9860 C.3    59  VAL59       0.0252
     61  CG1       47.6590   28.2020   15.2860 C.3    59  VAL59       0.0019
     62  CG2       48.8840   29.5960   13.6140 C.3    59  VAL59       0.0019
     63  N         44.1370   24.3520   16.0900 N.3    61  ASN61      -0.1240
     64  CA        44.4150   23.7490   17.3840 C.3    61  ASN61       0.1653
     65  C         43.1110   23.3040   18.0200 C.2    61  ASN61       0.2266
     66  O         42.0440   23.7770   17.6350 O.2    61  ASN61      -0.2867
     67  CB        45.0990   24.7560   18.3050 C.3    61  ASN61       0.1155
     68  CG        45.7690   24.0930   19.4830 C.2    61  ASN61       0.2627
     69  OD1       45.6890   22.8750   19.6570 O.2    61  ASN61      -0.2716
     70  ND2       46.4380   24.8880   20.2990 N.am   61  ASN61      -0.0877
     71  N         44.9660   24.4680   25.5600 N.3    68  TRP68      -0.1241
     72  CA        45.2650   24.3600   24.1310 C.3    68  TRP68       0.1605
     73  C         46.1690   23.1690   23.8380 C.2    68  TRP68       0.2264
     74  O         47.0180   22.8130   24.6570 O.2    68  TRP68      -0.2867
     75  CB        45.9270   25.6380   23.6150 C.3    68  TRP68       0.0550
     76  CG        45.0410   26.8200   23.6350 C.ar   68  TRP68       0.0003
     77  CD1       45.0890   27.8620   24.5140 C.ar   68  TRP68       0.0946
     78  CD2       43.9590   27.1010   22.7370 C.ar   68  TRP68       0.0152
     79  NE1       44.1050   28.7750   24.2220 N.ar   68  TRP68      -0.2442
     80  CE2       43.3950   28.3320   23.1350 C.ar   68  TRP68       0.0810
     81  CE3       43.4110   26.4330   21.6360 C.ar   68  TRP68       0.0012
     82  CZ2       42.3040   28.9100   22.4670 C.ar   68  TRP68       0.0191
     83  CZ3       42.3290   27.0080   20.9730 C.ar   68  TRP68       0.0001
     84  CH2       41.7890   28.2340   21.3920 C.ar   68  TRP68       0.0015
     85  N         49.8410   22.8860   18.2880 N.3    71  GLU71      -0.1245
     86  CA        49.3330   23.6380   17.1500 C.3    71  GLU71       0.1567
     87  C         49.6010   22.9110   15.8330 C.2    71  GLU71       0.2260
     88  O         50.3140   21.9060   15.7980 O.2    71  GLU71      -0.2867
     89  CB        49.9670   25.0350   17.1270 C.3    71  GLU71       0.0388
     90  CG        49.7360   25.8420   18.4100 C.3    71  GLU71       0.1160
     91  CD        50.3220   27.2550   18.3710 C.2    71  GLU71       0.3649
     92  OE1       50.5410   27.8040   17.2710 O.co2  71  GLU71      -0.2457
     93  OE2       50.5470   27.8260   19.4570 O.co2  71  GLU71      -0.2457
     94  N         50.2460   24.1040   11.6720 N.3    73  ARG73      -0.1245
     95  CA        50.3570   25.2210   10.7530 C.3    73  ARG73       0.1563
     96  C         50.2850   24.8030    9.3000 C.2    73  ARG73       0.2260
     97  O         50.8080   23.7510    8.9160 O.2    73  ARG73      -0.2867
     98  CB        51.6450   25.9990   11.0090 C.3    73  ARG73       0.0307
     99  CG        51.5880   26.8530   12.2490 C.3    73  ARG73       0.0489
    100  CD        52.5180   26.3560   13.3200 C.3    73  ARG73       0.2205
    101  NE        52.3780   27.1490   14.5400 N.pl3  73  ARG73      -0.0865
    102  CZ        52.5510   28.4670   14.6130 C.cat  73  ARG73       0.5346
    103  NH1       52.9030   29.1650   13.5450 N.pl3  73  ARG73       0.1354
    104  NH2       52.3900   29.0880   15.7680 N.pl3  73  ARG73       0.1354
@<TRIPOS>BOND
     1    97    96    2
     2    30    29    2
     3    96    95    1
     4    29    28    1
     5    27    28    1
     6    95    98    1
     7    95    94    1
     8    28    31    1
     9    98    99    1
    10    50    51    2
    11    50    49    1
    12    56    57    1
    13    31    32    1
    14    21    22    2
    15    21    20    1
    16    99   100    1
    17    54    53   ar
    18    49    52    1
    19    49    48    1
    20    52    53    1
    21    57    58    1
    22    57    60    1
    23    19    20    1
    24    20    23    1
    25     1     2    1
    26    53    55   ar
    27    32    33    1
    28    58    59    2
    29   100   101    1
    30     4     3    2
    31   103   102    1
    32     2     3    1
    33     2     5    1
    34    62    60    1
    35    33    34    1
    36    26    24   am
    37    60    61    1
    38    23    24    1
    39   101   102    2
    40   102   104    1
    41    24    25    2
    42     5     6    1
    43    12    11    2
    44    34    35    2
    45    11    10    1
    46    88    87    2
    47    87    86    1
    48    63    64    1
    49     6     8    1
    50     6     7    1
    51    36    35    1
    52    35    37    1
    53    38    39    1
    54     9    10    1
    55    10    13    1
    56    40    39    1
    57    40    41    2
    58    89    86    1
    59    89    90    1
    60    86    85    1
    61    92    91   ar
    62    39    42    1
    63    64    65    1
    64    64    67    1
    65    66    65    2
    66    42    43    1
    67    45    43   ar
    68    45    47   ar
    69    13    14    1
    70    14    15   ar
    71    14    16   ar
    72    15    17   ar
    73    17    18   ar
    74    16    18   ar
    75    43    44   ar
    76    67    68    1
    77    91    90    1
    78    91    93   ar
    79    47    46   ar
    80    68    69    2
    81    68    70   am
    82    44    46   ar
    83    83    84   ar
    84    83    81   ar
    85    84    82   ar
    86    81    78   ar
    87    82    80   ar
    88    78    80   ar
    89    78    76   ar
    90    80    79   ar
    91    75    76    1
    92    75    72    1
    93    76    77   ar
    94    73    72    1
    95    73    74    2
    96    72    71    1
    97    79    77   ar
