@<TRIPOS>MOLECULE
tmp/1slcA00.pdb
 107 102 0 0 0
SMALL
GASTEIGER

@<TRIPOS>ATOM
      1  N         23.7510   20.9080   -7.8230 N.3    44  HIS44      -0.1241
      2  CA        23.0140   21.5810   -8.8590 C.3    44  HIS44       0.1621
      3  C         22.7650   20.3950   -9.7770 C.2    44  HIS44       0.2264
      4  O         23.7060   19.8840  -10.3780 O.2    44  HIS44      -0.2867
      5  CB        23.8720   22.6320   -9.5550 C.3    44  HIS44       0.0745
      6  CG        23.3000   23.1120  -10.8560 C.ar   44  HIS44       0.0817
      7  ND1       22.1910   23.9230  -10.9270 N.ar   44  HIS44      -0.2268
      8  CD2       23.6990   22.9140  -12.1330 C.ar   44  HIS44       0.1154
      9  CE1       21.9350   24.2130  -12.1900 C.ar   44  HIS44       0.1986
     10  NE2       22.8350   23.6120  -12.9420 N.ar   44  HIS44      -0.2212
     11  N         21.0720   19.0710  -12.9790 N.3    46  ASN46      -0.1240
     12  CA        20.5500   19.6010  -14.2220 C.3    46  ASN46       0.1653
     13  C         20.4000   18.7090  -15.4620 C.2    46  ASN46       0.2266
     14  O         21.3190   18.5930  -16.2710 O.2    46  ASN46      -0.2867
     15  CB        21.3510   20.8490  -14.5630 C.3    46  ASN46       0.1155
     16  CG        20.8360   21.5840  -15.7940 C.2    46  ASN46       0.2627
     17  OD1       21.5990   22.2680  -16.4700 O.2    46  ASN46      -0.2716
     18  ND2       19.5430   21.4800  -16.0660 N.am   46  ASN46      -0.0877
     19  N         19.4500   17.7250  -19.0380 N.3    48  ARG48      -0.1245
     20  CA        19.3420   18.4780  -20.2760 C.3    48  ARG48       0.1563
     21  C         18.8710   17.6010  -21.4200 C.2    48  ARG48       0.2260
     22  O         19.5500   16.6490  -21.7960 O.2    48  ARG48      -0.2867
     23  CB        20.6930   19.1140  -20.6400 C.3    48  ARG48       0.0307
     24  CG        21.0380   20.3470  -19.8230 C.3    48  ARG48       0.0489
     25  CD        22.2980   20.1800  -19.0130 C.3    48  ARG48       0.2205
     26  NE        23.4840   20.7400  -19.6660 N.pl3  48  ARG48      -0.0865
     27  CZ        24.2540   21.6990  -19.1460 C.cat  48  ARG48       0.5346
     28  NH1       23.9630   22.2460  -17.9790 N.pl3  48  ARG48       0.1354
     29  NH2       25.3150   22.1300  -19.8040 N.pl3  48  ARG48       0.1354
     30  N         22.4660   23.8880  -23.8150 N.3    52  HIS52      -0.1226
     31  CA        23.8840   24.1970  -23.6130 C.3    52  HIS52       0.1752
     32  C         24.8420   23.2040  -24.2890 C.2    52  HIS52       0.2597
     33  O         25.9020   22.8930  -23.7500 O.2    52  HIS52      -0.2718
     34  CB        24.2170   24.2730  -22.1080 C.3    52  HIS52       0.0759
     35  CG        23.2050   25.0120  -21.2840 C.ar   52  HIS52       0.0818
     36  ND1       23.2640   26.3730  -21.0640 N.ar   52  HIS52      -0.2268
     37  CD2       22.1210   24.5700  -20.6040 C.ar   52  HIS52       0.1154
     38  CE1       22.2600   26.7350  -20.2850 C.ar   52  HIS52       0.1986
     39  NE2       21.5530   25.6590  -19.9910 N.ar   52  HIS52      -0.2212
     40  N         24.4850   22.7110  -25.4650 N.am   53  GLY53      -0.1942
     41  CA        25.3580   21.7640  -26.1400 C.3    53  GLY53       0.2014
     42  C         25.1220   20.3070  -25.7620 C.2    53  GLY53       0.2639
     43  O         25.5760   19.3960  -26.4720 O.2    53  GLY53      -0.2714
     44  N         24.4390   20.0780  -24.6400 N.am   54  ASP54      -0.1957
     45  CA        24.1330   18.7240  -24.1810 C.3    54  ASP54       0.1840
     46  C         22.7610   18.2770  -24.6420 C.2    54  ASP54       0.2621
     47  O         21.8020   19.0520  -24.6340 O.2    54  ASP54      -0.2715
     48  CB        24.2010   18.6270  -22.6540 C.3    54  ASP54       0.1450
     49  CG        25.5940   18.8670  -22.1230 C.2    54  ASP54       0.3671
     50  OD1       25.9360   20.0340  -21.8840 O.co2  54  ASP54      -0.2456
     51  OD2       26.3590   17.8960  -21.9720 O.co2  54  ASP54      -0.2456
     52  N         22.6780   17.0140  -25.0360 N.am   55  VAL55      -0.1977
     53  CA        21.4420   16.4080  -25.4900 C.3    55  VAL55       0.1596
     54  C         21.2560   15.1390  -24.6570 C.2    55  VAL55       0.2287
     55  O         22.1780   14.3250  -24.5420 O.2    55  VAL55      -0.2864
     56  CB        21.5090   16.0630  -27.0070 C.3    55  VAL55       0.0276
     57  CG1       20.2820   15.2640  -27.4260 C.3    55  VAL55       0.0022
     58  CG2       21.5880   17.3580  -27.8410 C.3    55  VAL55       0.0022
     59  N         23.5780   16.8760  -16.1070 N.3    59  VAL59      -0.1245
     60  CA        24.7910   17.5670  -15.6870 C.3    59  VAL59       0.1561
     61  C         24.6560   17.9760  -14.2260 C.2    59  VAL59       0.2260
     62  O         23.6460   18.5520  -13.8170 O.2    59  VAL59      -0.2867
     63  CB        25.0730   18.8110  -16.5410 C.3    59  VAL59       0.0252
     64  CG1       26.3600   19.4930  -16.0660 C.3    59  VAL59       0.0019
     65  CG2       25.1690   18.4220  -18.0090 C.3    59  VAL59       0.0019
     66  N         26.8040   19.7010  -10.8110 N.3    61  ASN61      -0.1240
     67  CA        27.9000   20.5770  -10.4640 C.3    61  ASN61       0.1653
     68  C         27.5850   21.1810   -9.1170 C.2    61  ASN61       0.2266
     69  O         26.4510   21.0460   -8.6420 O.2    61  ASN61      -0.2867
     70  CB        28.0690   21.6800  -11.5020 C.3    61  ASN61       0.1155
     71  CG        29.4620   22.2700  -11.4800 C.2    61  ASN61       0.2627
     72  OD1       30.2550   21.9480  -10.5900 O.2    61  ASN61      -0.2716
     73  ND2       29.7780   23.1240  -12.4550 N.am   61  ASN61      -0.0877
     74  N         31.2480   28.2490   -9.5120 N.3    68  TRP68      -0.1241
     75  CA        30.8300   26.9440  -10.0150 C.3    68  TRP68       0.1605
     76  C         31.9940   25.9590   -9.9150 C.2    68  TRP68       0.2264
     77  O         33.1500   26.3540  -10.0460 O.2    68  TRP68      -0.2867
     78  CB        30.4210   27.0530  -11.4890 C.3    68  TRP68       0.0550
     79  CG        29.0320   27.5450  -11.7370 C.ar   68  TRP68       0.0003
     80  CD1       28.6680   28.6800  -12.4150 C.ar   68  TRP68       0.0946
     81  CD2       27.8100   26.8940  -11.3660 C.ar   68  TRP68       0.0152
     82  NE1       27.3010   28.7690  -12.4900 N.ar   68  TRP68      -0.2442
     83  CE2       26.7470   27.6890  -11.8520 C.ar   68  TRP68       0.0810
     84  CE3       27.5100   25.7140  -10.6710 C.ar   68  TRP68       0.0012
     85  CZ2       25.4070   27.3460  -11.6610 C.ar   68  TRP68       0.0191
     86  CZ3       26.1780   25.3710  -10.4820 C.ar   68  TRP68       0.0001
     87  CH2       25.1430   26.1860  -10.9760 C.ar   68  TRP68       0.0015
     88  N         32.0960   20.2190  -13.6110 N.3    71  GLU71      -0.1245
     89  CA        30.8970   19.4890  -13.9900 C.3    71  GLU71       0.1567
     90  C         31.0800   17.9960  -14.0060 C.2    71  GLU71       0.2260
     91  O         32.1860   17.4960  -14.2080 O.2    71  GLU71      -0.2867
     92  CB        30.4130   19.9470  -15.3570 C.3    71  GLU71       0.0388
     93  CG        30.2020   21.4330  -15.4330 C.3    71  GLU71       0.1160
     94  CD        29.7200   21.8850  -16.7790 C.2    71  GLU71       0.3649
     95  OE1       30.0850   21.2550  -17.7880 O.co2  71  GLU71      -0.2457
     96  OE2       28.9920   22.8910  -16.8360 O.co2  71  GLU71      -0.2457
     97  N         28.9840   14.8350  -15.7910 N.3    73  ARG73      -0.1245
     98  CA        27.8990   14.4150  -16.6580 C.3    73  ARG73       0.1563
     99  C         27.5220   12.9500  -16.4780 C.2    73  ARG73       0.2260
    100  O         28.3950   12.1120  -16.2680 O.2    73  ARG73      -0.2867
    101  CB        28.2460   14.7280  -18.1130 C.3    73  ARG73       0.0307
    102  CG        27.4800   15.9440  -18.5930 C.3    73  ARG73       0.0489
    103  CD        27.9900   16.4840  -19.8820 C.3    73  ARG73       0.2205
    104  NE        29.1560   17.3090  -19.6370 N.pl3  73  ARG73      -0.0865
    105  CZ        29.1740   18.6330  -19.7030 C.cat  73  ARG73       0.5346
    106  NH1       28.0860   19.3210  -20.0330 N.pl3  73  ARG73       0.1354
    107  NH2       30.3110   19.2690  -19.4560 N.pl3  73  ARG73       0.1354
@<TRIPOS>BOND
     1    58    56    1
     2    57    56    1
     3    56    53    1
     4    43    42    2
     5    41    42    1
     6    41    40    1
     7    42    44   am
     8    53    52    1
     9    53    54    1
    10    40    32   am
    11    52    46   am
    12    54    55    2
    13    46    47    2
    14    46    45    1
    15    44    45    1
    16    32    33    2
    17    32    31    1
    18    45    48    1
    19    30    31    1
    20    31    34    1
    21    48    49    1
    22    49    51   ar
    23    49    50   ar
    24    34    35    1
    25    22    21    2
    26    21    20    1
    27    35    36   ar
    28    35    37   ar
    29    36    38   ar
    30    23    20    1
    31    23    24    1
    32    37    39   ar
    33    38    39   ar
    34    20    19    1
    35   106   105    1
    36   103   104    1
    37   103   102    1
    38    24    25    1
    39    29    27    1
    40   105   104    2
    41   105   107    1
    42    26    27    2
    43    26    25    1
    44    27    28    1
    45   102   101    1
    46   101    98    1
    47    65    63    1
    48    95    94   ar
    49    96    94   ar
    50    94    93    1
    51    98    99    1
    52    98    97    1
    53    63    64    1
    54    63    60    1
    55    99   100    2
    56    17    16    2
    57    14    13    2
    58    59    60    1
    59    18    16   am
    60    16    15    1
    61    60    61    1
    62    13    12    1
    63    93    92    1
    64    92    89    1
    65    15    12    1
    66    61    62    2
    67    12    11    1
    68    91    90    2
    69    90    89    1
    70    89    88    1
    71    10     9   ar
    72    10     8   ar
    73    82    80   ar
    74    82    83   ar
    75    73    71   am
    76    80    79   ar
    77     9     7   ar
    78     8     6   ar
    79    83    85   ar
    80    83    81   ar
    81    79    78    1
    82    79    81   ar
    83    85    87   ar
    84    70    71    1
    85    70    67    1
    86    78    75    1
    87    71    72    2
    88    81    84   ar
    89    87    86   ar
    90     7     6   ar
    91     6     5    1
    92    66    67    1
    93    84    86   ar
    94    67    68    1
    95     4     3    2
    96    77    76    2
    97    75    76    1
    98    75    74    1
    99     3     2    1
   100     5     2    1
   101    68    69    2
   102     2     1    1
