@<TRIPOS>MOLECULE
tmp/1slhB01.pdb
 100 95 0 0 0
SMALL
GASTEIGER

@<TRIPOS>ATOM
      1  N         55.2810   15.8090   17.2080 N.3    59  VAL59      -0.1245
      2  CA        54.9860   16.4740   15.9580 C.3    59  VAL59       0.1561
      3  C         56.1930   16.3450   15.0470 C.2    59  VAL59       0.2260
      4  O         57.2890   16.8090   15.3830 O.2    59  VAL59      -0.2867
      5  CB        54.6570   17.9570   16.2070 C.3    59  VAL59       0.0252
      6  CG1       54.3330   18.6530   14.8830 C.3    59  VAL59       0.0019
      7  CG2       53.4880   18.0620   17.2220 C.3    59  VAL59       0.0019
      8  N         60.0990   21.9870   10.3120 N.3    73  ILE73      -0.1245
      9  CA        59.6000   22.4080   11.6130 C.3    73  ILE73       0.1561
     10  C         60.8130   22.7140   12.5240 C.2    73  ILE73       0.2260
     11  O         61.5520   21.8180   12.9090 O.2    73  ILE73      -0.2867
     12  CB        58.6990   21.2960   12.2410 C.3    73  ILE73       0.0252
     13  CG1       57.5580   20.9780   11.2950 C.3    73  ILE73       0.0019
     14  CG2       58.1140   21.7580   13.6070 C.3    73  ILE73       0.0019
     15  CD1       56.6480   19.9310   11.8580 C.3    73  ILE73       0.0001
     16  N         61.4130   23.2000   15.7840 N.3    75  ASN75      -0.1240
     17  CA        61.6550   22.3910   17.0260 C.3    75  ASN75       0.1653
     18  C         61.2780   20.9110   16.8630 C.2    75  ASN75       0.2266
     19  O         60.9350   20.1900   17.8090 O.2    75  ASN75      -0.2867
     20  CB        60.8320   22.9330   18.1870 C.3    75  ASN75       0.1155
     21  CG        59.3740   22.6800   17.9860 C.2    75  ASN75       0.2627
     22  OD1       58.9250   22.6920   16.8210 O.2    75  ASN75      -0.2716
     23  ND2       58.5840   22.4260   19.0320 N.am   75  ASN75      -0.0877
     24  N         58.4160   18.1130   17.7040 N.3    78  GLY78      -0.1210
     25  CA        57.7050   18.8760   18.7110 C.3    78  GLY78       0.1956
     26  C         57.1630   17.9490   19.7840 C.2    78  GLY78       0.2613
     27  O         56.6140   16.8840   19.4910 O.2    78  GLY78      -0.2717
     28  N         57.3160   18.3740   21.0340 N.am   79  THR79      -0.1938
     29  CA        56.8700   17.5900   22.1790 C.3    79  THR79       0.2028
     30  C         55.5140   18.0390   22.7030 C.2    79  THR79       0.2642
     31  O         55.2830   19.2040   22.9840 O.2    79  THR79      -0.2714
     32  CB        57.8650   17.7050   23.3450 C.3    79  THR79       0.1808
     33  OG1       59.2040   17.5320   22.8550 O.3    79  THR79      -0.2208
     34  CG2       57.5600   16.6570   24.4210 C.3    79  THR79       0.0379
     35  N         54.6070   17.1000   22.8480 N.am   80  ILE80      -0.1963
     36  CA        53.3020   17.4160   23.3820 C.3    80  ILE80       0.1727
     37  C         53.1740   16.6150   24.6620 C.2    80  ILE80       0.2616
     38  O         53.0100   15.4010   24.6160 O.2    80  ILE80      -0.2715
     39  CB        52.1700   17.0170   22.4010 C.3    80  ILE80       0.0290
     40  CG1       52.4170   17.6250   21.0280 C.3    80  ILE80       0.0022
     41  CG2       50.8510   17.5230   22.9110 C.3    80  ILE80       0.0023
     42  CD1       52.3530   19.1230   20.9740 C.3    80  ILE80       0.0001
     43  N         53.2810   17.3170   25.7890 N.am   81  ASP81      -0.1971
     44  CA        53.1460   16.7390   27.1180 C.3    81  ASP81       0.1709
     45  C         51.7280   16.2970   27.3740 C.2    81  ASP81       0.2293
     46  O         50.7610   16.9530   26.9530 O.2    81  ASP81      -0.2864
     47  CB        53.4780   17.7670   28.1840 C.3    81  ASP81       0.1436
     48  CG        54.8690   18.2670   28.0770 C.2    81  ASP81       0.3671
     49  OD1       55.7630   17.5620   28.5910 O.co2  81  ASP81      -0.2456
     50  OD2       55.0740   19.3420   27.4590 O.co2  81  ASP81      -0.2456
     51  N         49.3710   18.8980   28.6290 N.3    84  TYR84      -0.1241
     52  CA        48.9920   19.9640   27.7310 C.3    84  TYR84       0.1605
     53  C         47.5750   19.8440   27.1930 C.2    84  TYR84       0.2264
     54  O         47.2550   18.8410   26.5450 O.2    84  TYR84      -0.2867
     55  CB        49.9330   20.0070   26.5400 C.3    84  TYR84       0.0534
     56  CG        49.7080   21.2310   25.6870 C.ar   84  TYR84      -0.0201
     57  CD1       49.8810   22.5070   26.2290 C.ar   84  TYR84      -0.0009
     58  CD2       49.4020   21.1190   24.3210 C.ar   84  TYR84      -0.0009
     59  CE1       49.7760   23.6210   25.4640 C.ar   84  TYR84       0.0417
     60  CE2       49.3020   22.2620   23.5220 C.ar   84  TYR84       0.0417
     61  CZ        49.4990   23.5150   24.1290 C.ar   84  TYR84       0.1957
     62  OH        49.5050   24.7100   23.4630 O.3    84  TYR84      -0.2866
     63  N         46.0290   24.4530   22.3740 N.3    87  GLU87      -0.1231
     64  CA        45.9110   24.1420   20.9650 C.3    87  GLU87       0.1699
     65  C         47.2980   23.7420   20.4800 C.2    87  GLU87       0.2592
     66  O         48.2940   24.2800   20.9370 O.2    87  GLU87      -0.2718
     67  CB        45.3930   25.3790   20.2120 C.3    87  GLU87       0.0402
     68  CG        45.5390   25.2960   18.7170 C.3    87  GLU87       0.1161
     69  CD        44.7430   26.3480   17.9560 C.2    87  GLU87       0.3649
     70  OE1       44.6550   27.4980   18.4240 O.co2  87  GLU87      -0.2457
     71  OE2       44.2340   26.0280   16.8730 O.co2  87  GLU87      -0.2457
     72  N         47.3760   22.7780   19.5710 N.am   88  ILE88      -0.1966
     73  CA        48.6700   22.3450   19.0520 C.3    88  ILE88       0.1727
     74  C         49.1050   23.2970   17.9490 C.2    88  ILE88       0.2616
     75  O         48.3700   23.5700   17.0000 O.2    88  ILE88      -0.2715
     76  CB        48.6290   20.8550   18.5010 C.3    88  ILE88       0.0290
     77  CG1       48.3620   19.8790   19.6510 C.3    88  ILE88       0.0022
     78  CG2       49.9570   20.4710   17.7940 C.3    88  ILE88       0.0023
     79  CD1       48.2100   18.4820   19.1510 C.3    88  ILE88       0.0001
     80  N         50.3100   23.8150   18.0740 N.am   89  LYS89      -0.1963
     81  CA        50.8010   24.7110   17.0580 C.3    89  LYS89       0.1728
     82  C         52.0620   24.1270   16.4210 C.2    89  LYS89       0.2616
     83  O         52.8020   23.3710   17.0530 O.2    89  LYS89      -0.2715
     84  CB        51.0630   26.0810   17.6740 C.3    89  LYS89       0.0311
     85  CG        49.8060   26.6950   18.2750 C.3    89  LYS89       0.0038
     86  CD        50.0880   28.0000   18.9450 C.3    89  LYS89       0.0206
     87  CE        48.8090   28.5290   19.4730 C.3    89  LYS89       0.1093
     88  NZ        49.1240   29.6670   20.3310 N.3    89  LYS89      -0.1314
     89  N         52.2770   24.4620   15.1570 N.am   90  VAL90      -0.1963
     90  CA        53.4350   23.9960   14.4140 C.3    90  VAL90       0.1727
     91  C         54.3860   25.1390   14.0210 C.2    90  VAL90       0.2616
     92  O         53.9800   26.0920   13.3870 O.2    90  VAL90      -0.2715
     93  CB        52.9800   23.2950   13.1390 C.3    90  VAL90       0.0290
     94  CG1       54.1890   22.8530   12.3460 C.3    90  VAL90       0.0023
     95  CG2       52.0400   22.1310   13.4770 C.3    90  VAL90       0.0023
     96  N         55.6530   25.0390   14.4060 N.am   91  ALA91      -0.1977
     97  CA        56.6400   26.0560   14.0560 C.3    91  ALA91       0.1597
     98  C         57.2270   25.7350   12.6830 C.2    91  ALA91       0.2287
     99  O         58.3010   25.1290   12.5720 O.2    91  ALA91      -0.2864
    100  CB        57.7440   26.1100   15.0870 C.3    91  ALA91       0.0319
@<TRIPOS>BOND
     1     8     9    1
     2    13    15    1
     3    13    12    1
     4     9    12    1
     5     9    10    1
     6    12    14    1
     7    94    93    1
     8    10    11    2
     9    99    98    2
    10    98    97    1
    11    93    95    1
    12    93    90    1
    13    92    91    2
    14    91    96   am
    15    91    90    1
    16    97    96    1
    17    97   100    1
    18    90    89    1
    19     6     5    1
    20     3     4    2
    21     3     2    1
    22    89    82   am
    23    16    17    1
    24     2     5    1
    25     2     1    1
    26     5     7    1
    27    82    83    2
    28    82    81    1
    29    22    21    2
    30    18    17    1
    31    18    19    2
    32    71    69   ar
    33    75    74    2
    34    17    20    1
    35    81    84    1
    36    81    80    1
    37    84    85    1
    38    24    25    1
    39    78    76    1
    40    74    80   am
    41    74    73    1
    42    69    70   ar
    43    69    68    1
    44    21    20    1
    45    21    23   am
    46    85    86    1
    47    76    73    1
    48    76    77    1
    49    25    26    1
    50    68    67    1
    51    86    87    1
    52    73    72    1
    53    79    77    1
    54    87    88    1
    55    27    26    2
    56    72    65   am
    57    26    28   am
    58    67    64    1
    59    65    66    2
    60    65    64    1
    61    64    63    1
    62    42    40    1
    63    40    39    1
    64    28    29    1
    65    29    30    1
    66    29    32    1
    67    39    41    1
    68    39    36    1
    69    30    35   am
    70    30    31    2
    71    35    36    1
    72    33    32    1
    73    32    34    1
    74    36    37    1
    75    62    61    1
    76    60    61   ar
    77    60    58   ar
    78    61    59   ar
    79    58    56   ar
    80    38    37    2
    81    37    43   am
    82    59    57   ar
    83    56    57   ar
    84    56    55    1
    85    43    44    1
    86    55    52    1
    87    54    53    2
    88    46    45    2
    89    44    45    1
    90    44    47    1
    91    53    52    1
    92    50    48   ar
    93    52    51    1
    94    48    47    1
    95    48    49   ar
