@<TRIPOS>MOLECULE
tmp/1sliA00.pdb
 182 171 0 0 0
SMALL
GASTEIGER

@<TRIPOS>ATOM
      1  N          8.8220    3.9640   28.4900 N.3   213  ARG213     -0.1231
      2  CA         7.8470    4.9090   29.0260 C.3   213  ARG213      0.1694
      3  C          8.5650    6.1990   29.4280 C.2   213  ARG213      0.2591
      4  O          9.7910    6.2620   29.4200 O.2   213  ARG213     -0.2718
      5  CB         7.1650    4.3240   30.2730 C.3   213  ARG213      0.0321
      6  CG         5.9830    3.4210   29.9870 C.3   213  ARG213      0.0489
      7  CD         4.7010    4.1700   30.2600 C.3   213  ARG213      0.2205
      8  NE         4.3140    4.1210   31.6560 N.pl3 213  ARG213     -0.0865
      9  CZ         3.7720    5.1190   32.3500 C.cat 213  ARG213      0.5346
     10  NH1        3.5420    6.3110   31.8120 N.pl3 213  ARG213      0.1354
     11  NH2        3.4020    4.8840   33.5930 N.pl3 213  ARG213      0.1354
     12  N          7.7820    7.2220   29.7570 N.am  214  ILE214     -0.1980
     13  CA         8.2660    8.5260   30.2350 C.3   214  ILE214      0.1595
     14  C          9.2560    9.2580   29.3040 C.2   214  ILE214      0.2287
     15  O         10.4610    9.3530   29.5900 O.2   214  ILE214     -0.2864
     16  CB         8.8940    8.3980   31.6590 C.3   214  ILE214      0.0276
     17  CG1        8.2250    7.2720   32.4770 C.3   214  ILE214      0.0022
     18  CG2        8.7800    9.7230   32.3970 C.3   214  ILE214      0.0022
     19  CD1        6.7300    7.4280   32.7150 C.3   214  ILE214      0.0001
     20  N         11.9590    0.1840   30.4410 N.3   232  ARG232     -0.1245
     21  CA        11.3160   -0.7120   31.4080 C.3   232  ARG232      0.1563
     22  C         11.3870   -2.1840   30.9820 C.2   232  ARG232      0.2260
     23  O         10.6220   -2.6430   30.1300 O.2   232  ARG232     -0.2867
     24  CB         9.8640   -0.2570   31.6620 C.3   232  ARG232      0.0307
     25  CG         9.7900    1.1750   32.2280 C.3   232  ARG232      0.0489
     26  CD         8.4130    1.5700   32.7760 C.3   232  ARG232      0.2205
     27  NE         8.4650    2.8860   33.4160 N.pl3 232  ARG232     -0.0865
     28  CZ         7.4900    3.4290   34.1470 C.cat 232  ARG232      0.5346
     29  NH1        6.3480    2.7720   34.3450 N.pl3 232  ARG232      0.1354
     30  NH2        7.6590    4.6310   34.6990 N.pl3 232  ARG232      0.1354
     31  N          5.7640    0.6810   37.1480 N.3   238  ASP238     -0.1225
     32  CA         6.5570    1.7530   37.7460 C.3   238  ASP238      0.1805
     33  C          7.5190    1.0520   38.6880 C.2   238  ASP238      0.2598
     34  O          7.3260   -0.1280   39.0140 O.2   238  ASP238     -0.2718
     35  CB         5.7000    2.7100   38.5870 C.3   238  ASP238      0.1424
     36  CG         4.7540    3.5510   37.7580 C.2   238  ASP238      0.3668
     37  OD1        5.0390    3.7990   36.5690 O.co2 238  ASP238     -0.2456
     38  OD2        3.7190    3.9810   38.3130 O.co2 238  ASP238     -0.2456
     39  N          8.4550    1.8240   39.2320 N.am  239  SER239     -0.1952
     40  CA         9.4590    1.2920   40.1230 C.3   239  SER239      0.1924
     41  C          9.0710    0.3410   41.2220 C.2   239  SER239      0.2314
     42  O          8.0940    0.5200   41.9460 O.2   239  SER239     -0.2863
     43  CB        10.4180    2.3650   40.6130 C.3   239  SER239      0.2116
     44  OG        11.4020    2.5660   39.6160 O.3   239  SER239     -0.2180
     45  N         14.2630    5.9060   37.3250 N.3   294  ILE294     -0.1231
     46  CA        12.9450    6.1360   36.7450 C.3   294  ILE294      0.1692
     47  C         12.6270    7.6320   36.6420 C.2   294  ILE294      0.2592
     48  O         13.0700    8.4170   37.4840 O.2   294  ILE294     -0.2718
     49  CB        11.8530    5.3790   37.6030 C.3   294  ILE294      0.0266
     50  CG1       10.4420    5.6160   37.0730 C.3   294  ILE294      0.0019
     51  CG2       11.9380    5.7930   39.0700 C.3   294  ILE294      0.0020
     52  CD1        9.3790    4.8310   37.8240 C.3   294  ILE294      0.0001
     53  N         11.9190    8.0020   35.5700 N.am  295  ASP295     -0.1974
     54  CA        11.4680    9.3710   35.2680 C.3   295  ASP295      0.1709
     55  C         12.5960   10.3630   34.9670 C.2   295  ASP295      0.2293
     56  O         13.0720   11.0630   35.8570 O.2   295  ASP295     -0.2864
     57  CB        10.5850    9.9020   36.4000 C.3   295  ASP295      0.1436
     58  CG         9.2410    9.1830   36.4850 C.2   295  ASP295      0.3671
     59  OD1        8.9140    8.3720   35.5970 O.co2 295  ASP295     -0.2456
     60  OD2        8.4960    9.4530   37.4440 O.co2 295  ASP295     -0.2456
     61  N         15.0610    9.6890   39.0920 N.3   312  ASP312     -0.1239
     62  CA        14.9110    9.2000   40.4590 C.3   312  ASP312      0.1674
     63  C         15.7470    7.9240   40.5740 C.2   312  ASP312      0.2266
     64  O         15.7460    7.0930   39.6620 O.2   312  ASP312     -0.2867
     65  CB        13.4590    8.8120   40.7690 C.3   312  ASP312      0.1410
     66  CG        12.4820    9.9410   40.5550 C.2   312  ASP312      0.3668
     67  OD1       12.8530   11.1220   40.7490 O.co2 312  ASP312     -0.2456
     68  OD2       11.3220    9.6290   40.2110 O.co2 312  ASP312     -0.2456
     69  N         16.0640    4.5920   42.6880 N.3   314  MET314     -0.1245
     70  CA        15.3860    3.6850   43.6120 C.3   314  MET314      0.1570
     71  C         16.2770    2.5280   44.0560 C.2   314  MET314      0.2261
     72  O         16.7210    1.7270   43.2200 O.2   314  MET314     -0.2867
     73  CB        14.1330    3.0800   42.9520 C.3   314  MET314      0.0387
     74  CG        13.1150    4.0860   42.4840 C.3   314  MET314      0.0595
     75  SD        12.4120    5.0250   43.8570 S.3   314  MET314     -0.1393
     76  CE        11.4250    6.1890   42.9450 C.3   314  MET314      0.0692
     77  N          8.2880    4.6500   44.7220 N.3   320  SER320     -0.1217
     78  CA         7.7320    5.7730   45.4900 C.3   320  SER320      0.1889
     79  C          6.7310    5.3670   46.5760 C.2   320  SER320      0.2288
     80  O          6.7140    5.9490   47.6570 O.2   320  SER320     -0.2866
     81  CB         7.0500    6.7860   44.5640 C.3   320  SER320      0.2089
     82  OG         7.9920    7.4740   43.7630 O.3   320  SER320     -0.2183
     83  N          8.9280   10.6110   49.8950 N.3   456  PHE456     -0.1241
     84  CA         9.6210   10.6220   48.6120 C.3   456  PHE456      0.1605
     85  C          9.7210   12.0490   48.0930 C.2   456  PHE456      0.2264
     86  O          8.8900   12.8920   48.4290 O.2   456  PHE456     -0.2867
     87  CB         8.9270    9.7170   47.5620 C.3   456  PHE456      0.0534
     88  CG         7.5230   10.1550   47.1650 C.ar  456  PHE456     -0.0203
     89  CD1        7.3220   11.2420   46.3160 C.ar  456  PHE456     -0.0042
     90  CD2        6.4070    9.4580   47.6250 C.ar  456  PHE456     -0.0042
     91  CE1        6.0370   11.6280   45.9350 C.ar  456  PHE456     -0.0003
     92  CE2        5.1160    9.8370   47.2470 C.ar  456  PHE456     -0.0003
     93  CZ         4.9320   10.9230   46.4020 C.ar  456  PHE456     -0.0000
     94  N         10.7170   13.3600   44.3620 N.3   458  VAL458     -0.1245
     95  CA        11.0460   12.9410   43.0140 C.3   458  VAL458      0.1561
     96  C         10.8840   14.0510   41.9810 C.2   458  VAL458      0.2260
     97  O         10.3360   15.1090   42.2750 O.2   458  VAL458     -0.2867
     98  CB        10.1590   11.7300   42.6230 C.3   458  VAL458      0.0252
     99  CG1       10.4460   10.5530   43.5430 C.3   458  VAL458      0.0019
    100  CG2        8.6670   12.1030   42.7080 C.3   458  VAL458      0.0019
    101  N          8.3200   17.0090   43.1070 N.3   481  TYR481     -0.1241
    102  CA         7.0760   16.8670   43.8520 C.3   481  TYR481      0.1605
    103  C          7.3110   15.8520   44.9540 C.2   481  TYR481      0.2264
    104  O          8.2390   15.0440   44.8710 O.2   481  TYR481     -0.2867
    105  CB         5.8570   16.5330   42.9760 C.3   481  TYR481      0.0534
    106  CG         5.7990   15.1500   42.3920 C.ar  481  TYR481     -0.0201
    107  CD1        6.3550   14.8800   41.1470 C.ar  481  TYR481     -0.0009
    108  CD2        5.1270   14.1190   43.0520 C.ar  481  TYR481     -0.0009
    109  CE1        6.2460   13.6230   40.5660 C.ar  481  TYR481      0.0417
    110  CE2        5.0120   12.8550   42.4770 C.ar  481  TYR481      0.0417
    111  CZ         5.5760   12.6190   41.2330 C.ar  481  TYR481      0.1957
    112  OH         5.4830   11.3770   40.6530 O.3   481  TYR481     -0.2866
    113  N          0.2210   13.4630   43.1340 N.3   513  THR513     -0.1218
    114  CA         1.1960   13.4830   42.0410 C.3   513  THR513      0.1862
    115  C          1.2510   14.8100   41.2760 C.2   513  THR513      0.2287
    116  O          0.7070   14.9230   40.1740 O.2   513  THR513     -0.2866
    117  CB         0.9250   12.3430   41.0390 C.3   513  THR513      0.1770
    118  OG1        0.7860   11.1070   41.7530 O.3   513  THR513     -0.2211
    119  CG2        2.0770   12.2150   40.0620 C.3   513  THR513      0.0375
    120  N          3.3050   16.3800   39.1690 N.3   515  GLU515     -0.1245
    121  CA         4.3120   16.4690   38.1180 C.3   515  GLU515      0.1567
    122  C          4.0770   17.8000   37.3970 C.2   515  GLU515      0.2260
    123  O          2.9600   18.0970   36.9660 O.2   515  GLU515     -0.2867
    124  CB         4.1540   15.3230   37.1130 C.3   515  GLU515      0.0388
    125  CG         4.3530   13.9370   37.6770 C.3   515  GLU515      0.1160
    126  CD         3.6530   12.8650   36.8420 C.2   515  GLU515      0.3649
    127  OE1        2.5290   13.1150   36.3500 O.co2 515  GLU515     -0.2457
    128  OE2        4.2470   11.7760   36.6820 O.co2 515  GLU515     -0.2457
    129  N          0.1260   18.6910   37.0080 N.3   531  ARG531     -0.1245
    130  CA        -0.9120   17.6880   37.1600 C.3   531  ARG531      0.1563
    131  C         -1.3230   17.7960   38.6390 C.2   531  ARG531      0.2260
    132  O         -0.5180   18.2040   39.4890 O.2   531  ARG531     -0.2867
    133  CB        -0.3140   16.2980   36.8810 C.3   531  ARG531      0.0307
    134  CG        -1.1690   15.1100   37.3100 C.3   531  ARG531      0.0489
    135  CD        -0.3900   13.8100   37.1720 C.3   531  ARG531      0.2205
    136  NE        -1.1180   12.6340   37.6540 N.pl3 531  ARG531     -0.0865
    137  CZ        -0.6690   11.3850   37.5540 C.cat 531  ARG531      0.5346
    138  NH1        0.5020   11.1400   36.9870 N.pl3 531  ARG531      0.1354
    139  NH2       -1.3890   10.3740   38.0280 N.pl3 531  ARG531      0.1354
    140  N         -6.7730    7.7710   29.6270 N.3   593  ARG593     -0.1245
    141  CA        -5.7410    8.6200   29.0380 C.3   593  ARG593      0.1563
    142  C         -5.8800    8.4550   27.5330 C.2   593  ARG593      0.2260
    143  O         -5.3650    7.4980   26.9490 O.2   593  ARG593     -0.2867
    144  CB        -4.3500    8.2090   29.5310 C.3   593  ARG593      0.0307
    145  CG        -4.1580    8.4610   31.0120 C.3   593  ARG593      0.0489
    146  CD        -2.7440    8.1580   31.4880 C.3   593  ARG593      0.2205
    147  NE        -2.4980    8.7480   32.8030 N.pl3 593  ARG593     -0.0865
    148  CZ        -1.5260    8.3780   33.6320 C.cat 593  ARG593      0.5346
    149  NH1       -0.6900    7.4020   33.3010 N.pl3 593  ARG593      0.1354
    150  NH2       -1.3760    8.9940   34.7960 N.pl3 593  ARG593      0.1354
    151  N          1.7680   10.0370   28.6500 N.3   633  TYR633     -0.1241
    152  CA         2.8920   10.9630   28.8780 C.3   633  TYR633      0.1605
    153  C          3.4680   11.4780   27.5550 C.2   633  TYR633      0.2264
    154  O          3.4350   10.7640   26.5410 O.2   633  TYR633     -0.2867
    155  CB         3.9890   10.2940   29.7270 C.3   633  TYR633      0.0534
    156  CG         3.6700   10.2120   31.2190 C.ar  633  TYR633     -0.0201
    157  CD1        2.3690    9.9780   31.6680 C.ar  633  TYR633     -0.0009
    158  CD2        4.6680   10.3970   32.1780 C.ar  633  TYR633     -0.0009
    159  CE1        2.0680    9.9350   33.0200 C.ar  633  TYR633      0.0417
    160  CE2        4.3780   10.3560   33.5470 C.ar  633  TYR633      0.0417
    161  CZ         3.0690   10.1270   33.9560 C.ar  633  TYR633      0.1957
    162  OH         2.7480   10.1250   35.2960 O.3   633  TYR633     -0.2866
    163  N         -1.5190    4.4560   29.5220 N.3   653  SER653     -0.1202
    164  CA        -0.5670    3.9480   30.5120 C.3   653  SER653      0.2020
    165  C         -1.0750    3.8150   31.9400 C.2   653  SER653      0.2618
    166  O         -0.3200    3.4350   32.8360 O.2   653  SER653     -0.2717
    167  CB         0.7260    4.7780   30.4930 C.3   653  SER653      0.2103
    168  OG         0.4940    6.1270   30.8720 O.3   653  SER653     -0.2182
    169  N         -2.3350    4.1650   32.1630 N.am  654  TRP654     -0.1975
    170  CA        -2.9400    4.0580   33.4820 C.3   654  TRP654      0.1640
    171  C         -3.7650    2.7720   33.5170 C.2   654  TRP654      0.2290
    172  O         -3.7530    2.0360   34.5070 O.2   654  TRP654     -0.2864
    173  CB        -3.8510    5.2620   33.7470 C.3   654  TRP654      0.0576
    174  CG        -4.4370    5.3080   35.1470 C.ar  654  TRP654      0.0006
    175  CD1       -5.7140    4.9890   35.5150 C.ar  654  TRP654      0.0946
    176  CD2       -3.7740    5.7440   36.3490 C.ar  654  TRP654      0.0152
    177  NE1       -5.8920    5.2030   36.8620 N.ar  654  TRP654     -0.2442
    178  CE2       -4.7190    5.6710   37.3980 C.ar  654  TRP654      0.0810
    179  CE3       -2.4800    6.1970   36.6350 C.ar  654  TRP654      0.0012
    180  CZ2       -4.4130    6.0320   38.7160 C.ar  654  TRP654      0.0191
    181  CZ3       -2.1740    6.5560   37.9480 C.ar  654  TRP654      0.0001
    182  CH2       -3.1410    6.4740   38.9680 C.ar  654  TRP654      0.0015
@<TRIPOS>BOND
     1   154   153    2
     2   143   142    2
     3   142   141    1
     4   153   152    1
     5     1     2    1
     6   151   152    1
     7   152   155    1
     8     2     3    1
     9     2     5    1
    10   141   144    1
    11   141   140    1
    12    14    15    2
    13    14    13    1
    14     4     3    2
    15     3    12   am
    16   163   164    1
    17   144   145    1
    18   155   156    1
    19    12    13    1
    20     6     7    1
    21     6     5    1
    22    23    22    2
    23    13    16    1
    24     7     8    1
    25    20    21    1
    26   167   164    1
    27   167   168    1
    28   164   165    1
    29    22    21    1
    30   145   146    1
    31   156   157   ar
    32   156   158   ar
    33    21    24    1
    34   146   147    1
    35     8     9    2
    36    16    18    1
    37    16    17    1
    38    24    25    1
    39   157   159   ar
    40    10     9    1
    41   165   169   am
    42   165   166    2
    43   169   170    1
    44   158   160   ar
    45    25    26    1
    46     9    11    1
    47    17    19    1
    48    26    27    1
    49   147   148    2
    50   159   161   ar
    51   149   148    1
    52    27    28    2
    53   170   171    1
    54   170   173    1
    55   171   172    2
    56   160   161   ar
    57   148   150    1
    58   173   174    1
    59   161   162    1
    60    28    29    1
    61    28    30    1
    62    55    54    1
    63    55    56    2
    64   174   175   ar
    65   174   176   ar
    66    54    53    1
    67    54    57    1
    68   175   177   ar
    69    53    47   am
    70    59    58   ar
    71   176   179   ar
    72   176   178   ar
    73   127   126   ar
    74    57    58    1
    75    58    60   ar
    76    37    36   ar
    77   179   181   ar
    78    47    46    1
    79    47    48    2
    80   128   126   ar
    81    46    45    1
    82    46    49    1
    83   126   125    1
    84   177   178   ar
    85   133   130    1
    86   133   134    1
    87   123   122    2
    88   138   137    1
    89   129   130    1
    90    50    49    1
    91    50    52    1
    92   124   125    1
    93   124   121    1
    94    31    32    1
    95   130   131    1
    96   135   134    1
    97   135   136    1
    98   122   121    1
    99   178   180   ar
   100   137   136    2
   101   137   139    1
   102    49    51    1
   103    32    35    1
   104    32    33    1
   105    36    38   ar
   106    36    35    1
   107   181   182   ar
   108   121   120    1
   109   131   132    2
   110    33    34    2
   111    33    39   am
   112   180   182   ar
   113    61    62    1
   114    39    40    1
   115    44    43    1
   116    64    63    2
   117   119   117    1
   118    40    43    1
   119    40    41    1
   120   116   115    2
   121    68    66   ar
   122    62    63    1
   123    62    65    1
   124    66    67   ar
   125    66    65    1
   126   109   107   ar
   127   109   111   ar
   128   112   111    1
   129   117   118    1
   130   117   114    1
   131   107   106   ar
   132    41    42    2
   133   111   110   ar
   134   115   114    1
   135    96    97    2
   136    96    95    1
   137   114   113    1
   138   106   105    1
   139   106   108   ar
   140   110   108   ar
   141    74    73    1
   142    74    75    1
   143    98   100    1
   144    98    95    1
   145    98    99    1
   146    69    70    1
   147    76    75    1
   148    73    70    1
   149   105   102    1
   150    95    94    1
   151   101   102    1
   152    72    71    2
   153    70    71    1
   154    82    81    1
   155   102   103    1
   156    81    78    1
   157    77    78    1
   158   104   103    2
   159    78    79    1
   160    91    89   ar
   161    91    93   ar
   162    89    88   ar
   163    93    92   ar
   164    79    80    2
   165    88    87    1
   166    88    90   ar
   167    92    90   ar
   168    87    84    1
   169    85    86    2
   170    85    84    1
   171    84    83    1
