@<TRIPOS>MOLECULE
tmp/1slnA00.pdb
 191 191 0 0 0
SMALL
GASTEIGER

@<TRIPOS>ATOM
      1  N        -11.2450   92.3430   73.0280 N.3    79  GLY79      -0.1210
      2  CA       -11.7200   93.5340   73.7040 C.3    79  GLY79       0.1956
      3  C        -13.2230   93.5850   73.9120 C.2    79  GLY79       0.2612
      4  O        -13.9250   92.5760   73.7000 O.2    79  GLY79      -0.2717
      5  N        -13.7020   94.7660   74.3170 N.am   80  ASN80      -0.1960
      6  CA       -15.1130   95.0150   74.5860 C.3    80  ASN80       0.1819
      7  C        -15.6680   93.9850   75.5770 C.2    80  ASN80       0.2621
      8  O        -15.0750   93.7820   76.6290 O.2    80  ASN80      -0.2715
      9  CB       -15.9050   95.0900   73.2790 C.3    80  ASN80       0.1195
     10  CG       -15.5240   96.3050   72.4340 C.2    80  ASN80       0.2630
     11  OD1      -15.5540   97.4500   72.9110 O.2    80  ASN80      -0.2716
     12  ND2      -15.1400   96.0630   71.1790 N.am   80  ASN80      -0.0877
     13  N        -16.7670   93.3090   75.2610 N.am   81  VAL81      -0.1963
     14  CA       -17.3110   92.3140   76.1800 C.3    81  VAL81       0.1727
     15  C        -16.2890   91.2150   76.4470 C.2    81  VAL81       0.2616
     16  O        -15.7420   90.6190   75.5120 O.2    81  VAL81      -0.2715
     17  CB       -18.6210   91.7100   75.6620 C.3    81  VAL81       0.0290
     18  CG1      -19.0500   90.5120   76.5410 C.3    81  VAL81       0.0023
     19  CG2      -19.6990   92.7730   75.6800 C.3    81  VAL81       0.0023
     20  N        -15.9780   91.0130   77.7240 N.am   82  LEU82      -0.1963
     21  CA       -15.0100   90.0080   78.1580 C.3    82  LEU82       0.1728
     22  C        -15.6610   88.6820   78.5570 C.2    82  LEU82       0.2616
     23  O        -15.0540   87.6220   78.4140 O.2    82  LEU82      -0.2715
     24  CB       -14.2150   90.5220   79.3640 C.3    82  LEU82       0.0311
     25  CG       -13.4230   91.8190   79.2840 C.3    82  LEU82       0.0022
     26  CD1      -12.9900   92.2410   80.6770 C.3    82  LEU82       0.0001
     27  CD2      -12.2340   91.6550   78.3650 C.3    82  LEU82       0.0001
     28  N        -16.8710   88.7610   79.0990 N.am   83  ALA83      -0.1963
     29  CA       -17.6030   87.5900   79.5630 C.3    83  ALA83       0.1728
     30  C        -19.0150   87.9910   79.9430 C.2    83  ALA83       0.2616
     31  O        -19.3180   89.1810   80.0330 O.2    83  ALA83      -0.2715
     32  CB       -16.8950   86.9980   80.7980 C.3    83  ALA83       0.0334
     33  N        -19.8790   87.0110   80.1710 N.am   84  HIS84      -0.1959
     34  CA       -21.2550   87.2870   80.5830 C.3    84  HIS84       0.1787
     35  C        -21.8030   86.1240   81.4020 C.2    84  HIS84       0.2620
     36  O        -21.3900   84.9840   81.2100 O.2    84  HIS84      -0.2715
     37  CB       -22.1750   87.6530   79.3870 C.3    84  HIS84       0.0785
     38  CG       -22.2900   86.5950   78.3190 C.ar   84  HIS84       0.0821
     39  ND1      -22.1840   86.8620   76.9710 N.ar   84  HIS84      -0.2267
     40  CD2      -22.5420   85.2650   78.4060 C.ar   84  HIS84       0.1154
     41  CE1      -22.3660   85.7170   76.2910 C.ar   84  HIS84       0.1986
     42  NE2      -22.5910   84.6940   77.1010 N.ar   84  HIS84      -0.2212
     43  N        -22.7110   86.4210   82.3260 N.am   85  ALA85      -0.1977
     44  CA       -23.3120   85.4110   83.1960 C.3    85  ALA85       0.1597
     45  C        -24.8000   85.6840   83.3320 C.2    85  ALA85       0.2287
     46  O        -25.2750   86.7640   82.9660 O.2    85  ALA85      -0.2864
     47  CB       -22.6470   85.4270   84.5650 C.3    85  ALA85       0.0319
     48  N        -10.0350   86.7690   74.4680 N.3   102  GLU102     -0.1245
     49  CA        -9.2350   87.6540   75.3100 C.3   102  GLU102      0.1567
     50  C         -8.0310   86.8370   75.7240 C.2   102  GLU102      0.2260
     51  O         -8.0070   85.6010   75.5560 O.2   102  GLU102     -0.2867
     52  CB        -9.9690   88.0600   76.5920 C.3   102  GLU102      0.0388
     53  CG       -11.3130   88.7030   76.3980 C.3   102  GLU102      0.1160
     54  CD       -11.2640   89.9270   75.5090 C.2   102  GLU102      0.3649
     55  OE1      -10.2210   90.6340   75.4700 O.co2 102  GLU102     -0.2457
     56  OE2      -12.2890   90.1690   74.8510 O.co2 102  GLU102     -0.2457
     57  N         -6.1010   90.0740   80.5700 N.3   111  THR111     -0.1218
     58  CA        -7.4090   90.1140   81.1990 C.3   111  THR111      0.1862
     59  C         -7.3340   89.1350   82.3680 C.2   111  THR111      0.2287
     60  O         -7.2140   87.9320   82.1600 O.2   111  THR111     -0.2866
     61  CB        -8.5130   89.7040   80.2030 C.3   111  THR111      0.1770
     62  OG1       -8.4220   90.5190   79.0290 O.3   111  THR111     -0.2211
     63  CG2       -9.8780   89.9520   80.8060 C.3   111  THR111      0.0375
     64  N        -10.5750   88.3100   88.6060 N.3   115  LEU115     -0.1231
     65  CA       -11.4820   89.4560   88.7200 C.3   115  LEU115      0.1693
     66  C        -12.7450   89.3250   87.9010 C.2   115  LEU115      0.2591
     67  O        -13.8350   89.5780   88.4000 O.2   115  LEU115     -0.2718
     68  CB       -10.7640   90.7490   88.3450 C.3   115  LEU115      0.0284
     69  CG        -9.7670   91.2670   89.3710 C.3   115  LEU115      0.0019
     70  CD1       -8.8050   92.2440   88.7230 C.3   115  LEU115      0.0001
     71  CD2      -10.5270   91.9160   90.5160 C.3   115  LEU115      0.0001
     72  N        -12.5990   88.9270   86.6430 N.am  116  VAL116     -0.1980
     73  CA       -13.7470   88.7880   85.7630 C.3   116  VAL116      0.1595
     74  C        -14.6620   87.6940   86.2860 C.2   116  VAL116      0.2287
     75  O        -15.8810   87.8730   86.3310 O.2   116  VAL116     -0.2864
     76  CB       -13.3170   88.5290   84.3090 C.3   116  VAL116      0.0276
     77  CG1      -14.5360   88.3220   83.4380 C.3   116  VAL116      0.0022
     78  CG2      -12.5060   89.7110   83.7990 C.3   116  VAL116      0.0022
     79  N        -16.6270   89.0620   89.2340 N.3   119  HIS119     -0.1226
     80  CA       -17.7240   89.9480   88.8180 C.3   119  HIS119      0.1752
     81  C        -18.9060   89.1520   88.2610 C.2   119  HIS119      0.2595
     82  O        -20.0470   89.3100   88.7120 O.2   119  HIS119     -0.2718
     83  CB       -17.2380   90.9500   87.7620 C.3   119  HIS119      0.0759
     84  CG       -18.3090   91.8540   87.2350 C.ar  119  HIS119      0.0818
     85  ND1      -18.5280   93.1360   87.6710 N.ar  119  HIS119     -0.2268
     86  CD2      -19.2290   91.6490   86.2500 C.ar  119  HIS119      0.1154
     87  CE1      -19.5380   93.6590   86.9640 C.ar  119  HIS119      0.1986
     88  NE2      -20.0110   92.7960   86.0770 N.ar  119  HIS119     -0.2212
     89  N        -18.6300   88.2980   87.2820 N.am  120  GLU120     -0.1979
     90  CA       -19.6640   87.4890   86.6580 C.3   120  GLU120      0.1602
     91  C        -20.3830   86.5980   87.6530 C.2   120  GLU120      0.2287
     92  O        -21.5780   86.3740   87.5150 O.2   120  GLU120     -0.2864
     93  CB       -19.0950   86.6460   85.5170 C.3   120  GLU120      0.0415
     94  CG       -18.3860   87.4540   84.4420 C.3   120  GLU120      0.1163
     95  CD       -19.2590   88.5150   83.7770 C.2   120  GLU120      0.3649
     96  OE1      -20.4940   88.5400   83.9640 O.co2 120  GLU120     -0.2457
     97  OE2      -18.6900   89.3330   83.0450 O.co2 120  GLU120     -0.2457
     98  N        -23.1080   88.1750   89.3760 N.3   123  HIS123     -0.1241
     99  CA       -24.3250   88.1390   88.5750 C.3   123  HIS123      0.1621
    100  C        -25.0710   86.8160   88.7700 C.2   123  HIS123      0.2264
    101  O        -26.2980   86.8120   88.9120 O.2   123  HIS123     -0.2867
    102  CB       -23.9960   88.3550   87.0890 C.3   123  HIS123      0.0745
    103  CG       -23.5830   89.7550   86.7520 C.ar  123  HIS123      0.0817
    104  ND1      -24.2700   90.8800   87.1460 N.ar  123  HIS123     -0.2268
    105  CD2      -22.5310   90.2090   86.0230 C.ar  123  HIS123      0.1154
    106  CE1      -23.6350   91.9520   86.6670 C.ar  123  HIS123      0.1986
    107  NE2      -22.5640   91.6130   85.9680 N.ar  123  HIS123     -0.2212
    108  N        -26.5650   92.8330   90.3470 N.3   128  PHE128     -0.1227
    109  CA       -26.4980   93.4720   89.0480 C.3   128  PHE128      0.1736
    110  C        -25.3230   94.4500   89.0890 C.2   128  PHE128      0.2595
    111  O        -24.3530   94.2140   89.7940 O.2   128  PHE128     -0.2718
    112  CB       -27.8190   94.1850   88.7450 C.3   128  PHE128      0.0547
    113  CG       -27.9310   94.6670   87.3320 C.ar  128  PHE128     -0.0202
    114  CD1      -27.4740   93.8740   86.2830 C.ar  128  PHE128     -0.0042
    115  CD2      -28.4450   95.9280   87.0500 C.ar  128  PHE128     -0.0042
    116  CE1      -27.5220   94.3250   84.9720 C.ar  128  PHE128     -0.0003
    117  CE2      -28.4970   96.3890   85.7390 C.ar  128  PHE128     -0.0003
    118  CZ       -28.0290   95.5790   84.6940 C.ar  128  PHE128     -0.0000
    119  N        -25.4010   95.5500   88.3530 N.am  129  HIS129     -0.1975
    120  CA       -24.3130   96.5060   88.3480 C.3   129  HIS129      0.1656
    121  C        -24.4550   97.6280   89.3560 C.2   129  HIS129      0.2291
    122  O        -25.5480   98.1290   89.6270 O.2   129  HIS129     -0.2864
    123  CB       -24.0650   97.0530   86.9450 C.3   129  HIS129      0.0771
    124  CG       -23.3820   96.0780   86.0370 C.ar  129  HIS129      0.0820
    125  ND1      -23.6530   95.9540   84.6940 N.ar  129  HIS129     -0.2267
    126  CD2      -22.4690   95.1120   86.3150 C.ar  129  HIS129      0.1154
    127  CE1      -22.9250   94.9360   84.2070 C.ar  129  HIS129      0.1986
    128  NE2      -22.1790   94.3750   85.1480 N.ar  129  HIS129     -0.2212
    129  N        -16.8120   95.8140   92.8990 N.3   136  LEU136     -0.1245
    130  CA       -16.5440   94.7390   91.9560 C.3   136  LEU136      0.1561
    131  C        -17.6560   94.6810   90.9110 C.2   136  LEU136      0.2260
    132  O        -17.3860   94.4610   89.7420 O.2   136  LEU136     -0.2867
    133  CB       -16.4440   93.3930   92.6920 C.3   136  LEU136      0.0270
    134  CG       -16.1660   92.1280   91.8570 C.3   136  LEU136      0.0019
    135  CD1      -14.9070   92.2750   91.0250 C.3   136  LEU136      0.0001
    136  CD2      -16.0520   90.9230   92.7750 C.3   136  LEU136      0.0001
    137  N        -19.2850   96.9880   89.5470 N.3   138  TYR138     -0.1228
    138  CA       -19.2840   98.1570   88.6690 C.3   138  TYR138      0.1721
    139  C        -19.2500   97.6100   87.2300 C.2   138  TYR138      0.2437
    140  O        -18.6550   96.5560   86.9730 O.2   138  TYR138     -0.2733
    141  CB       -18.0400   99.0060   88.9780 C.3   138  TYR138      0.0547
    142  CG       -17.8610  100.2690   88.1640 C.ar  138  TYR138     -0.0200
    143  CD1      -18.7910  101.3000   88.2250 C.ar  138  TYR138     -0.0009
    144  CD2      -16.7440  100.4340   87.3410 C.ar  138  TYR138     -0.0009
    145  CE1      -18.6220  102.4710   87.4830 C.ar  138  TYR138      0.0417
    146  CE2      -16.5600  101.6050   86.5940 C.ar  138  TYR138      0.0417
    147  CZ       -17.5030  102.6200   86.6710 C.ar  138  TYR138      0.1957
    148  OH       -17.3350  103.7930   85.9490 O.3   138  TYR138     -0.2866
    149  N        -19.9240   98.2980   86.2870 N.am  139  PRO139     -0.2718
    150  CA       -20.0100   97.9250   84.8730 C.3   139  PRO139      0.1535
    151  C        -18.7210   97.5400   84.1440 C.2   139  PRO139      0.2598
    152  O        -18.6810   96.5410   83.4230 O.2   139  PRO139     -0.2715
    153  CB       -20.6150   99.1780   84.2400 C.3   139  PRO139      0.0310
    154  CG       -21.5160   99.6730   85.2780 C.3   139  PRO139      0.0237
    155  CD       -20.7080   99.5250   86.5400 C.3   139  PRO139      0.0939
    156  N        -17.6690   98.3180   84.3650 N.am  140  LEU140     -0.1964
    157  CA       -16.4210   98.1220   83.6540 C.3   140  LEU140      0.1728
    158  C        -15.2150   97.5870   84.3840 C.2   140  LEU140      0.2616
    159  O        -14.8740   98.0440   85.4730 O.2   140  LEU140     -0.2715
    160  CB       -16.0140   99.4480   83.0090 C.3   140  LEU140      0.0311
    161  CG       -17.0480  100.2360   82.1980 C.3   140  LEU140      0.0022
    162  CD1      -16.4710  101.5970   81.8620 C.3   140  LEU140      0.0001
    163  CD2      -17.4530   99.4910   80.9400 C.3   140  LEU140      0.0001
    164  N        -14.5150   96.6860   83.7000 N.am  141  TYR141     -0.1960
    165  CA       -13.2840   96.0990   84.2010 C.3   141  TYR141      0.1771
    166  C        -12.2520   97.1700   83.9670 C.2   141  TYR141      0.2620
    167  O        -12.3450   97.9400   83.0150 O.2   141  TYR141     -0.2715
    168  CB       -12.8950   94.8690   83.3760 C.3   141  TYR141      0.0574
    169  CG       -11.5040   94.3140   83.6400 C.ar  141  TYR141     -0.0198
    170  CD1      -11.2880   93.3540   84.6240 C.ar  141  TYR141     -0.0009
    171  CD2      -10.4170   94.7140   82.8720 C.ar  141  TYR141     -0.0009
    172  CE1      -10.0300   92.7980   84.8300 C.ar  141  TYR141      0.0417
    173  CE2       -9.1530   94.1660   83.0720 C.ar  141  TYR141      0.0417
    174  CZ        -8.9710   93.2070   84.0550 C.ar  141  TYR141      0.1957
    175  OH        -7.7340   92.6450   84.2550 O.3   141  TYR141     -0.2866
    176  N        -11.2610   97.2230   84.8320 N.am  142  HIS142     -0.1959
    177  CA       -10.2110   98.1990   84.6680 C.3   142  HIS142      0.1787
    178  C         -8.9630   97.6020   85.2840 C.2   142  HIS142      0.2620
    179  O         -8.9980   97.0010   86.3700 O.2   142  HIS142     -0.2715
    180  CB       -10.5850   99.5190   85.3340 C.3   142  HIS142      0.0785
    181  CG       -10.1860   99.5990   86.7710 C.ar  142  HIS142      0.0821
    182  ND1      -11.0000   99.1410   87.7840 N.ar  142  HIS142     -0.2267
    183  CD2       -9.0370  100.0050   87.3570 C.ar  142  HIS142      0.1154
    184  CE1      -10.3610   99.2470   88.9340 C.ar  142  HIS142      0.1986
    185  NE2       -9.1670   99.7690   88.7100 N.ar  142  HIS142     -0.2212
    186  N         -7.8550   97.8140   84.5980 N.am  143  SER143     -0.1950
    187  CA        -6.5570   97.2950   84.9860 C.3   143  SER143      0.1924
    188  C         -6.0880   97.6750   86.4020 C.2   143  SER143      0.2314
    189  O         -5.6030   98.7900   86.6400 O.2   143  SER143     -0.2863
    190  CB        -5.5680   97.7450   83.9230 C.3   143  SER143      0.2116
    191  OG        -6.2680   97.9520   82.6810 O.3   143  SER143     -0.2180
@<TRIPOS>BOND
     1    12    10   am
     2    10    11    2
     3    10     9    1
     4     1     2    1
     5     9     6    1
     6     4     3    2
     7     2     3    1
     8     3     5   am
     9     5     6    1
    10    48    49    1
    11     6     7    1
    12    56    54   ar
    13    13     7   am
    14    13    14    1
    15    49    50    1
    16    49    52    1
    17    55    54   ar
    18    54    53    1
    19    16    15    2
    20    51    50    2
    21     7     8    2
    22    17    19    1
    23    17    14    1
    24    17    18    1
    25    14    15    1
    26    41    39   ar
    27    41    42   ar
    28    53    52    1
    29    15    20   am
    30    39    38   ar
    31    42    40   ar
    32    20    21    1
    33    21    22    1
    34    21    24    1
    35    38    40   ar
    36    38    37    1
    37    27    25    1
    38    23    22    2
    39    22    28   am
    40    62    61    1
    41    28    29    1
    42    25    24    1
    43    25    26    1
    44    37    34    1
    45    29    30    1
    46    29    32    1
    47    30    31    2
    48    30    33   am
    49    33    34    1
    50    61    63    1
    51    61    58    1
    52    57    58    1
    53    34    35    1
    54   163   161    1
    55    58    59    1
    56    36    35    2
    57    35    43   am
    58   162   161    1
    59    60    59    2
    60   161   160    1
    61    43    44    1
    62   191   190    1
    63   171   173   ar
    64   171   169   ar
    65    46    45    2
    66   160   157    1
    67   167   166    2
    68    97    95   ar
    69   173   174   ar
    70    44    45    1
    71    44    47    1
    72   168   169    1
    73   168   165    1
    74   152   151    2
    75    77    76    1
    76   169   170   ar
    77   157   156    1
    78   157   158    1
    79   164   165    1
    80   164   158   am
    81    95    96   ar
    82    95    94    1
    83    78    76    1
    84   190   187    1
    85   166   165    1
    86   166   176   am
    87   174   175    1
    88   174   172   ar
    89   151   156   am
    90   151   150    1
    91   127   125   ar
    92   127   128   ar
    93   153   150    1
    94   153   154    1
    95    76    73    1
    96   158   159    2
    97    94    93    1
    98   186   187    1
    99   186   178   am
   100   170   172   ar
   101   177   176    1
   102   177   178    1
   103   177   180    1
   104   125   124   ar
   105   118   116   ar
   106   118   117   ar
   107   150   149    1
   108   116   114   ar
   109   187   188    1
   110   128   126   ar
   111   154   155    1
   112   178   179    2
   113   180   181    1
   114    93    90    1
   115   117   115   ar
   116    73    74    1
   117    73    72    1
   118   148   147    1
   119   107   105   ar
   120   107   106   ar
   121   105   103   ar
   122   124   126   ar
   123   124   123    1
   124    88    86   ar
   125    88    87   ar
   126    86    84   ar
   127   114   113   ar
   128    74    75    2
   129   149   155    1
   130   149   139   am
   131   188   189    2
   132   146   147   ar
   133   146   144   ar
   134    72    66   am
   135    90    89    1
   136    90    91    1
   137   106   104   ar
   138   147   145   ar
   139   103   102    1
   140   103   104   ar
   141   181   183   ar
   142   181   182   ar
   143   123   120    1
   144    87    85   ar
   145   140   139    2
   146   115   113   ar
   147   102    99    1
   148   139   138    1
   149    84    85   ar
   150    84    83    1
   151    89    81   am
   152   113   112    1
   153   144   142   ar
   154   183   185   ar
   155   145   143   ar
   156    92    91    2
   157    83    80    1
   158   182   184   ar
   159    66    67    2
   160    66    65    1
   161   142   143   ar
   162   142   141    1
   163    81    82    2
   164    81    80    1
   165    68    65    1
   166    68    69    1
   167   120   119    1
   168   120   121    1
   169   119   110   am
   170    99   100    1
   171    99    98    1
   172    64    65    1
   173   138   141    1
   174   138   137    1
   175   185   184   ar
   176    70    69    1
   177   112   109    1
   178   100   101    2
   179    80    79    1
   180   109   110    1
   181   109   108    1
   182   110   111    2
   183   121   122    2
   184    69    71    1
   185   132   131    2
   186   131   130    1
   187   135   134    1
   188   134   133    1
   189   134   136    1
   190   130   133    1
   191   130   129    1
