@<TRIPOS>MOLECULE
tmp/1slyA00.pdb
 149 144 0 0 0
SMALL
GASTEIGER

@<TRIPOS>ATOM
      1  N          2.4790   48.1430   49.6960 N.3   478  GLU478     -0.1245
      2  CA         3.7130   48.9020   49.9020 C.3   478  GLU478      0.1567
      3  C          3.7650   49.6760   51.1990 C.2   478  GLU478      0.2260
      4  O          4.7140   49.6450   51.9520 O.2   478  GLU478     -0.2867
      5  CB         3.9030   49.8510   48.7500 C.3   478  GLU478      0.0388
      6  CG         4.3420   49.1730   47.4800 C.3   478  GLU478      0.1160
      7  CD         5.7940   48.6540   47.4090 C.2   478  GLU478      0.3649
      8  OE1        6.6160   48.7930   48.3510 O.co2 478  GLU478     -0.2457
      9  OE2        6.1400   48.0790   46.3530 O.co2 478  GLU478     -0.2457
     10  N         10.7890   53.9030   53.6490 N.3   487  SER487     -0.1203
     11  CA        11.5580   52.6530   53.8450 C.3   487  SER487      0.2005
     12  C         12.9770   52.8720   54.3420 C.2   487  SER487      0.2461
     13  O         13.5300   53.9510   54.1300 O.2   487  SER487     -0.2732
     14  CB        11.6360   51.8430   52.5250 C.3   487  SER487      0.2103
     15  OG        12.8270   51.0990   52.3360 O.3   487  SER487     -0.2182
     16  N         13.6340   51.8570   54.9340 N.am  488  PRO488     -0.2717
     17  CA        15.0600   51.8580   55.3010 C.3   488  PRO488      0.1535
     18  C         15.9910   52.5110   54.2920 C.2   488  PRO488      0.2598
     19  O         16.7330   53.4520   54.5690 O.2   488  PRO488     -0.2715
     20  CB        15.3830   50.3930   55.4980 C.3   488  PRO488      0.0310
     21  CG        14.1570   50.0290   56.2410 C.3   488  PRO488      0.0237
     22  CD        13.0690   50.5650   55.3530 C.3   488  PRO488      0.0939
     23  N         15.8440   51.9690   53.0770 N.am  489  VAL489     -0.1978
     24  CA        16.6680   52.3290   51.9180 C.3   489  VAL489      0.1596
     25  C         16.1980   53.5190   51.0490 C.2   489  VAL489      0.2287
     26  O         16.6440   53.6820   49.9210 O.2   489  VAL489     -0.2864
     27  CB        16.8070   50.9760   51.1600 C.3   489  VAL489      0.0276
     28  CG1       15.5930   50.6320   50.3170 C.3   489  VAL489      0.0022
     29  CG2       18.0980   51.0590   50.4050 C.3   489  VAL489      0.0022
     30  N         12.7470   54.3830   50.0830 N.3   491  ALA491     -0.1245
     31  CA        11.4870   54.4250   49.3150 C.3   491  ALA491      0.1562
     32  C         10.3770   55.2440   49.9840 C.2   491  ALA491      0.2260
     33  O         10.0110   55.0530   51.1500 O.2   491  ALA491     -0.2867
     34  CB        10.9880   53.0210   49.0570 C.3   491  ALA491      0.0290
     35  N          5.5770   53.8230   47.6870 N.3   496  GLN496     -0.1231
     36  CA         6.9760   53.5650   47.9600 C.3   496  GLN496      0.1698
     37  C          7.9430   53.6130   46.7970 C.2   496  GLN496      0.2592
     38  O          8.7140   52.6980   46.5370 O.2   496  GLN496     -0.2718
     39  CB         7.0950   52.2170   48.6530 C.3   496  GLN496      0.0381
     40  CG         6.4700   52.1580   50.0310 C.3   496  GLN496      0.0905
     41  CD         7.3100   52.8610   51.0560 C.2   496  GLN496      0.2608
     42  OE1        8.3540   52.3870   51.4660 O.2   496  GLN496     -0.2717
     43  NE2        6.9430   54.0330   51.4900 N.am  496  GLN496     -0.0878
     44  N          7.8990   54.7840   46.1880 N.am  497  ILE497     -0.1966
     45  CA         8.6840   55.1800   45.0060 C.3   497  ILE497      0.1727
     46  C         10.0860   55.5580   45.4040 C.2   497  ILE497      0.2616
     47  O         10.2730   56.3970   46.2830 O.2   497  ILE497     -0.2715
     48  CB         8.0520   56.3950   44.3080 C.3   497  ILE497      0.0290
     49  CG1        6.6280   56.0620   43.9150 C.3   497  ILE497      0.0022
     50  CG2        8.8030   56.7160   43.0580 C.3   497  ILE497      0.0023
     51  CD1        5.6410   57.1420   43.5880 C.3   497  ILE497      0.0001
     52  N         11.0690   54.9260   44.8270 N.am  498  MET498     -0.1977
     53  CA        12.4420   55.3070   45.1220 C.3   498  MET498      0.1605
     54  C         12.7470   56.6700   44.4650 C.2   498  MET498      0.2287
     55  O         12.2910   56.9200   43.3500 O.2   498  MET498     -0.2864
     56  CB        13.4120   54.2430   44.5890 C.3   498  MET498      0.0413
     57  CG        13.4080   52.8970   45.2560 C.3   498  MET498      0.0598
     58  SD        14.4260   52.8250   46.7360 S.3   498  MET498     -0.1393
     59  CE        15.9480   52.6400   45.8240 C.3   498  MET498      0.0692
     60  N         14.0950   56.2970   40.8530 N.3   501  THR501     -0.1218
     61  CA        12.9330   55.9430   40.0190 C.3   501  THR501      0.1862
     62  C         11.9980   57.1080   39.7450 C.2   501  THR501      0.2287
     63  O         11.4690   57.1840   38.6270 O.2   501  THR501     -0.2866
     64  CB        12.0560   54.8790   40.6630 C.3   501  THR501      0.1770
     65  OG1       12.9620   53.8270   40.9200 O.3   501  THR501     -0.2211
     66  CG2       10.8290   54.4720   39.8530 C.3   501  THR501      0.0375
     67  N         13.8540   59.2910   36.9930 N.3   504  HIS504     -0.1241
     68  CA        13.6740   58.7220   35.6410 C.3   504  HIS504      0.1621
     69  C         12.1920   58.6970   35.1840 C.2   504  HIS504      0.2264
     70  O         11.9310   59.0940   34.0620 O.2   504  HIS504     -0.2867
     71  CB        14.2190   57.2960   35.5650 C.3   504  HIS504      0.0745
     72  CG        15.5820   57.0940   36.1800 C.ar  504  HIS504      0.0817
     73  ND1       15.8710   56.0730   37.0870 N.ar  504  HIS504     -0.2268
     74  CD2       16.7570   57.7790   36.0330 C.ar  504  HIS504      0.1154
     75  CE1       17.1380   56.1200   37.4740 C.ar  504  HIS504      0.1986
     76  NE2       17.6830   57.1500   36.8430 N.ar  504  HIS504     -0.2212
     77  N          5.0040   54.8910   36.8690 N.3   533  TYR533     -0.1241
     78  CA         5.9570   53.7610   36.8810 C.3   533  TYR533      0.1605
     79  C          5.2960   52.3600   36.7650 C.2   533  TYR533      0.2264
     80  O          5.7850   51.4830   36.0480 O.2   533  TYR533     -0.2867
     81  CB         6.7730   53.7450   38.1470 C.3   533  TYR533      0.0534
     82  CG         7.9600   52.8250   37.9910 C.ar  533  TYR533     -0.0201
     83  CD1        8.8720   53.0460   36.9700 C.ar  533  TYR533     -0.0009
     84  CD2        8.1930   51.7640   38.8730 C.ar  533  TYR533     -0.0009
     85  CE1        9.9840   52.2410   36.8480 C.ar  533  TYR533      0.0417
     86  CE2        9.3130   50.9560   38.7510 C.ar  533  TYR533      0.0417
     87  CZ        10.1990   51.2130   37.7410 C.ar  533  TYR533      0.1957
     88  OH        11.3450   50.4840   37.6430 O.3   533  TYR533     -0.2866
     89  N          8.1090   46.0240   39.4850 N.3   552  TYR552     -0.1227
     90  CA         8.0220   47.2120   40.3420 C.3   552  TYR552      0.1736
     91  C          8.8710   47.0950   41.6260 C.2   552  TYR552      0.2595
     92  O          9.5290   48.0520   42.0340 O.2   552  TYR552     -0.2718
     93  CB         6.5370   47.4470   40.6740 C.3   552  TYR552      0.0548
     94  CG         6.2000   48.7640   41.3530 C.ar  552  TYR552     -0.0200
     95  CD1        6.3380   48.9480   42.7290 C.ar  552  TYR552     -0.0009
     96  CD2        5.6760   49.8240   40.6140 C.ar  552  TYR552     -0.0009
     97  CE1        5.9730   50.1400   43.3360 C.ar  552  TYR552      0.0417
     98  CE2        5.3140   51.0200   41.2060 C.ar  552  TYR552      0.0417
     99  CZ         5.4520   51.1720   42.5730 C.ar  552  TYR552      0.1957
    100  OH         5.0730   52.3500   43.1760 O.3   552  TYR552     -0.2866
    101  N          8.9070   45.9240   42.2490 N.am  553  ASN553     -0.1960
    102  CA         9.7100   45.6580   43.4630 C.3   553  ASN553      0.1819
    103  C         11.2260   45.3610   43.3210 C.2   553  ASN553      0.2621
    104  O         12.0520   45.6850   44.1980 O.2   553  ASN553     -0.2715
    105  CB         9.0280   44.4920   44.1980 C.3   553  ASN553      0.1195
    106  CG         9.7400   44.0990   45.4670 C.2   553  ASN553      0.2630
    107  OD1       10.3400   43.0400   45.6080 O.2   553  ASN553     -0.2716
    108  ND2        9.7500   45.0060   46.3950 N.am  553  ASN553     -0.0877
    109  N         11.5590   44.6510   42.2490 N.am  554  ALA554     -0.1963
    110  CA        12.9450   44.2410   42.0450 C.3   554  ALA554      0.1728
    111  C         13.6010   44.7950   40.8000 C.2   554  ALA554      0.2617
    112  O         14.8050   44.7220   40.6020 O.2   554  ALA554     -0.2715
    113  CB        12.9900   42.7340   42.0030 C.3   554  ALA554      0.0334
    114  N         12.7420   45.3120   39.9470 N.am  555  GLY555     -0.1940
    115  CA        13.1680   45.9070   38.7150 C.3   555  GLY555      0.2014
    116  C         13.0620   44.9790   37.5320 C.2   555  GLY555      0.2639
    117  O         13.3200   43.7770   37.5630 O.2   555  GLY555     -0.2714
    118  N         12.5860   45.6000   36.4890 N.am  556  LEU556     -0.1963
    119  CA        12.5820   45.0770   35.1290 C.3   556  LEU556      0.1728
    120  C         13.5520   43.9600   34.7050 C.2   556  LEU556      0.2617
    121  O         13.2120   42.9030   34.1860 O.2   556  LEU556     -0.2715
    122  CB        12.8380   46.2170   34.2200 C.3   556  LEU556      0.0311
    123  CG        12.0430   47.4780   34.3330 C.3   556  LEU556      0.0022
    124  CD1       10.6130   47.0170   34.3450 C.3   556  LEU556      0.0001
    125  CD2       12.4640   48.3520   35.5230 C.3   556  LEU556      0.0001
    126  N         14.8070   44.2910   34.9680 N.am  557  GLY557     -0.1940
    127  CA        15.9550   43.4790   34.6040 C.3   557  GLY557      0.2014
    128  C         16.0990   42.1580   35.3230 C.2   557  GLY557      0.2638
    129  O         16.3750   41.1520   34.6840 O.2   557  GLY557     -0.2714
    130  N         15.8450   42.1530   36.6330 N.am  558  ARG558     -0.1977
    131  CA        15.8880   40.9350   37.4400 C.3   558  ARG558      0.1597
    132  C         14.7560   40.0660   36.9490 C.2   558  ARG558      0.2287
    133  O         14.9780   38.8740   36.7620 O.2   558  ARG558     -0.2864
    134  CB        15.6630   41.1960   38.9150 C.3   558  ARG558      0.0334
    135  CG        16.5070   40.2540   39.7530 C.3   558  ARG558      0.0492
    136  CD        17.8510   40.8530   40.1100 C.3   558  ARG558      0.2205
    137  NE        17.6190   41.9860   41.0240 N.pl3 558  ARG558     -0.0865
    138  CZ        18.5520   42.7750   41.5920 C.cat 558  ARG558      0.5346
    139  NH1       19.8490   42.5660   41.3650 N.pl3 558  ARG558      0.1354
    140  NH2       18.1900   43.7870   42.3920 N.pl3 558  ARG558      0.1354
    141  N         11.6340   38.2060   49.1670 N.3   583  GLU583     -0.1245
    142  CA        10.8060   39.4220   49.2780 C.3   583  GLU583      0.1567
    143  C          9.8550   39.6130   48.1070 C.2   583  GLU583      0.2260
    144  O          8.6520   39.8450   48.2760 O.2   583  GLU583     -0.2867
    145  CB        11.7280   40.6250   49.4070 C.3   583  GLU583      0.0388
    146  CG        11.1780   42.0620   49.4370 C.3   583  GLU583      0.1160
    147  CD        12.2580   43.1410   49.2990 C.2   583  GLU583      0.3649
    148  OE1       13.4550   42.8880   49.6010 O.co2 583  GLU583     -0.2457
    149  OE2       11.9010   44.2640   48.8850 O.co2 583  GLU583     -0.2457
@<TRIPOS>BOND
     1    70    69    2
     2   121   120    2
     3   122   123    1
     4   122   119    1
     5   123   124    1
     6   123   125    1
     7   127   126    1
     8   127   128    1
     9   129   128    2
    10   120   126   am
    11   120   119    1
    12   119   118    1
    13    69    68    1
    14   128   130   am
    15    71    68    1
    16    71    72    1
    17    68    67    1
    18    74    72   ar
    19    74    76   ar
    20    80    79    2
    21    72    73   ar
    22   118   116   am
    23   130   131    1
    24   133   132    2
    25    79    78    1
    26    76    75   ar
    27    85    83   ar
    28    85    87   ar
    29    77    78    1
    30    78    81    1
    31   132   131    1
    32    83    82   ar
    33    73    75   ar
    34   131   134    1
    35   116   117    2
    36   116   115    1
    37    88    87    1
    38    87    86   ar
    39    82    81    1
    40    82    84   ar
    41    63    62    2
    42   115   114    1
    43    86    84   ar
    44   134   135    1
    45    89    90    1
    46    62    61    1
    47   135   136    1
    48    66    64    1
    49   114   111   am
    50    61    64    1
    51    61    60    1
    52   136   137    1
    53    90    93    1
    54    90    91    1
    55   112   111    2
    56    96    98   ar
    57    96    94   ar
    58    64    65    1
    59    93    94    1
    60   111   110    1
    61   137   138    2
    62    98    99   ar
    63    94    95   ar
    64   139   138    1
    65   138   140    1
    66    91    92    2
    67    91   101   am
    68   113   110    1
    69   110   109    1
    70   101   102    1
    71   109   103   am
    72    99   100    1
    73    99    97   ar
    74    95    97   ar
    75    50    48    1
    76   103   102    1
    77   103   104    2
    78    55    54    2
    79   102   105    1
    80    51    49    1
    81    49    48    1
    82   105   106    1
    83    48    45    1
    84    54    53    1
    85    56    53    1
    86    56    57    1
    87    52    53    1
    88    52    46   am
    89    45    46    1
    90    45    44    1
    91    57    58    1
    92    46    47    2
    93   106   107    2
    94   106   108   am
    95    59    58    1
    96    44    37   am
    97     9     7   ar
    98    38    37    2
    99    37    36    1
   100     7     6    1
   101     7     8   ar
   102     6     5    1
   103    35    36    1
   104    36    39    1
   105   143   144    2
   106   143   142    1
   107    39    40    1
   108     5     2    1
   109   149   147   ar
   110    34    31    1
   111   141   142    1
   112   142   145    1
   113   147   146    1
   114   147   148   ar
   115    31    32    1
   116    31    30    1
   117   145   146    1
   118     1     2    1
   119     2     3    1
   120    26    25    2
   121    32    33    2
   122    40    41    1
   123    28    27    1
   124    29    27    1
   125    25    24    1
   126    41    42    2
   127    41    43   am
   128    27    24    1
   129     3     4    2
   130    24    23    1
   131    15    14    1
   132    14    11    1
   133    23    18   am
   134    10    11    1
   135    11    12    1
   136    13    12    2
   137    18    19    2
   138    18    17    1
   139    12    16   am
   140    16    17    1
   141    16    22    1
   142    17    20    1
   143    22    21    1
   144    20    21    1
