@<TRIPOS>MOLECULE
tmp/1smcA01.pdb
 93 88 0 0 0
SMALL
GASTEIGER

@<TRIPOS>ATOM
      1  N          0.3030   -1.7010  -17.5510 N.3    20  HIS20      -0.1241
      2  CA        -0.3910   -0.4450  -17.8980 C.3    20  HIS20       0.1621
      3  C          0.6600    0.6160  -18.1420 C.2    20  HIS20       0.2264
      4  O          1.7710    0.5540  -17.5780 O.2    20  HIS20      -0.2867
      5  CB        -1.4330   -0.0260  -16.8320 C.3    20  HIS20       0.0745
      6  CG        -2.1820   -1.1750  -16.2250 C.ar   20  HIS20       0.0817
      7  ND1       -1.5970   -2.1000  -15.3780 N.ar   20  HIS20      -0.2268
      8  CD2       -3.4740   -1.5650  -16.3620 C.ar   20  HIS20       0.1154
      9  CE1       -2.4900   -3.0080  -15.0200 C.ar   20  HIS20       0.1986
     10  NE2       -3.6400   -2.6990  -15.5960 N.ar   20  HIS20      -0.2212
     11  N          2.8230    2.2170  -15.2100 N.3    23  ASP23      -0.1239
     12  CA         3.2440    1.2140  -14.2450 C.3    23  ASP23       0.1674
     13  C          4.7970    1.2930  -14.0440 C.2    23  ASP23       0.2266
     14  O          5.5920    1.3070  -15.0170 O.2    23  ASP23      -0.2867
     15  CB         2.8670   -0.2450  -14.5860 C.3    23  ASP23       0.1410
     16  CG         1.4000   -0.6100  -14.2680 C.2    23  ASP23       0.3668
     17  OD1        0.6170    0.3070  -13.9350 O.co2  23  ASP23      -0.2456
     18  OD2        0.9360   -1.7930  -14.4340 O.co2  23  ASP23      -0.2456
     19  N          6.7200   -7.1900  -14.8860 N.3    27  ASP27      -0.1239
     20  CA         6.6790   -8.4200  -14.0730 C.3    27  ASP27       0.1674
     21  C          7.7320   -9.4030  -14.5490 C.2    27  ASP27       0.2266
     22  O          7.9090   -9.5990  -15.7610 O.2    27  ASP27      -0.2867
     23  CB         5.2800   -9.0400  -14.1160 C.3    27  ASP27       0.1410
     24  CG         4.2840   -8.2830  -13.2140 C.2    27  ASP27       0.3668
     25  OD1        4.6950   -7.6880  -12.1740 O.co2  27  ASP27      -0.2456
     26  OD2        3.0630   -8.2420  -13.4560 O.co2  27  ASP27      -0.2456
     27  N          8.6390   -7.0500   -4.4510 N.3    62  PRO62      -0.2102
     28  CA         7.5860   -8.0330   -4.3680 C.3    62  PRO62       0.1504
     29  C          6.2780   -7.5650   -5.0110 C.2    62  PRO62       0.2576
     30  O          5.9930   -6.3550   -5.0860 O.2    62  PRO62      -0.2718
     31  CB         7.3670   -8.1780   -2.8260 C.3    62  PRO62       0.0282
     32  CG         8.5630   -7.5460   -2.1690 C.3    62  PRO62       0.0208
     33  CD         8.9440   -6.4910   -3.1240 C.3    62  PRO62       0.0893
     34  N          5.4860   -8.5300   -5.4620 N.am   63  ARG63      -0.1966
     35  CA         4.1200   -8.2910   -5.8740 C.3    63  ARG63       0.1729
     36  C          3.2060   -8.1880   -4.6830 C.2    63  ARG63       0.2617
     37  O          3.3230   -9.0260   -3.7950 O.2    63  ARG63      -0.2715
     38  CB         3.6350   -9.4180   -6.7800 C.3    63  ARG63       0.0348
     39  CG         4.5090   -9.5850   -8.0580 C.3    63  ARG63       0.0492
     40  CD         3.8500  -10.5080   -9.1050 C.3    63  ARG63       0.2205
     41  NE         2.5410   -9.9930   -9.5550 N.pl3  63  ARG63      -0.0865
     42  CZ         1.4660  -10.7430   -9.8210 C.cat  63  ARG63       0.5346
     43  NH1        1.4980  -12.0620   -9.6890 N.pl3  63  ARG63       0.1354
     44  NH2        0.3280  -10.1580  -10.1930 N.pl3  63  ARG63       0.1354
     45  N          2.3180   -7.1880   -4.6840 N.am   64  SER64      -0.1936
     46  CA         1.4980   -6.8530   -3.4830 C.3    64  SER64       0.2055
     47  C          0.3820   -7.8630   -3.2020 C.2    64  SER64       0.2644
     48  O          0.0890   -8.1920   -2.0340 O.2    64  SER64      -0.2714
     49  CB         0.8530   -5.4700   -3.5860 C.3    64  SER64       0.2130
     50  OG         0.0110   -5.4170   -4.7180 O.3    64  SER64      -0.2179
     51  N         -0.1950   -8.3900   -4.2790 N.am   65  GLY65      -0.1939
     52  CA        -1.3210   -9.3480   -4.2470 C.3    65  GLY65       0.2014
     53  C         -0.8840  -10.6100   -3.5010 C.2    65  GLY65       0.2638
     54  O         -1.4790  -10.9740   -2.4620 O.2    65  GLY65      -0.2714
     55  N          0.2150  -11.1980   -3.9690 N.am   66  LEU66      -0.1977
     56  CA         0.7490  -12.4370   -3.4340 C.3    66  LEU66       0.1596
     57  C          1.2540  -12.2240   -2.0170 C.2    66  LEU66       0.2287
     58  O          1.2840  -13.1790   -1.2050 O.2    66  LEU66      -0.2864
     59  CB         1.8980  -12.9570   -4.3070 C.3    66  LEU66       0.0297
     60  CG         1.5420  -13.6780   -5.6250 C.3    66  LEU66       0.0022
     61  CD1        2.8020  -13.9010   -6.4490 C.3    66  LEU66       0.0001
     62  CD2        0.8160  -15.0160   -5.4170 C.3    66  LEU66       0.0001
     63  N         -2.0610  -12.2140    0.0640 N.3    69  ARG69      -0.1245
     64  CA        -2.8970  -13.3910    0.0020 C.3    69  ARG69       0.1563
     65  C         -2.1730  -14.5690    0.6260 C.2    69  ARG69       0.2260
     66  O         -2.8240  -15.3900    1.2780 O.2    69  ARG69      -0.2867
     67  CB        -3.3740  -13.6910   -1.4460 C.3    69  ARG69       0.0307
     68  CG        -4.2740  -12.6080   -2.0690 C.3    69  ARG69       0.0489
     69  CD        -4.6470  -12.8000   -3.5880 C.3    69  ARG69       0.2205
     70  NE        -4.1480  -14.0780   -4.1270 N.pl3  69  ARG69      -0.0865
     71  CZ        -3.2360  -14.2220   -5.1040 C.cat  69  ARG69       0.5346
     72  NH1       -2.6850  -13.1430   -5.7120 N.pl3  69  ARG69       0.1354
     73  NH2       -2.8800  -15.4710   -5.4810 N.pl3  69  ARG69       0.1354
     74  N          4.0890  -14.9520  -12.4180 N.3   109  ARG109     -0.1245
     75  CA         4.7340  -13.6780  -12.1720 C.3   109  ARG109      0.1563
     76  C          5.0740  -13.6650  -10.6700 C.2   109  ARG109      0.2260
     77  O          4.1610  -13.7840   -9.8490 O.2   109  ARG109     -0.2867
     78  CB         3.7830  -12.5270  -12.4560 C.3   109  ARG109      0.0307
     79  CG         3.1930  -12.4040  -13.8730 C.3   109  ARG109      0.0489
     80  CD         1.9640  -11.4220  -13.8420 C.3   109  ARG109      0.2205
     81  NE         0.9900  -11.6910  -14.8750 N.pl3 109  ARG109     -0.0865
     82  CZ        -0.3430  -11.6420  -14.7170 C.cat 109  ARG109      0.5346
     83  NH1       -0.9140  -11.3360  -13.5480 N.pl3 109  ARG109      0.1354
     84  NH2       -1.1410  -11.9120  -15.7670 N.pl3 109  ARG109      0.1354
     85  N          8.5030   -7.7840   -9.4920 N.3   112  GLN112     -0.1245
     86  CA         8.5410   -6.7730  -10.5390 C.3   112  GLN112      0.1566
     87  C          9.8880   -6.0410  -10.5440 C.2   112  GLN112      0.2260
     88  O         10.5920   -5.9010   -9.5240 O.2   112  GLN112     -0.2867
     89  CB         7.3480   -5.8170  -10.3570 C.3   112  GLN112      0.0367
     90  CG         7.1640   -5.1910   -8.9910 C.3   112  GLN112      0.0905
     91  CD         5.8980   -4.3100   -8.8840 C.2   112  GLN112      0.2608
     92  OE1        5.6000   -3.5420   -9.7980 O.2   112  GLN112     -0.2717
     93  NE2        5.1780   -4.4180   -7.7530 N.am  112  GLN112     -0.0878
@<TRIPOS>BOND
     1     3     2    1
     2     3     4    2
     3     2     1    1
     4     2     5    1
     5     5     6    1
     6     8     6   ar
     7     8    10   ar
     8     6     7   ar
     9    84    82    1
    10    22    21    2
    11    10     9   ar
    12     7     9   ar
    13    11    12    1
    14    14    13    2
    15    19    20    1
    16    81    82    2
    17    81    80    1
    18    82    83    1
    19    15    16    1
    20    15    12    1
    21    21    20    1
    22    18    16   ar
    23    16    17   ar
    24    12    13    1
    25    23    20    1
    26    23    24    1
    27    79    80    1
    28    79    78    1
    29    26    24   ar
    30    24    25   ar
    31    78    75    1
    32    74    75    1
    33    75    76    1
    34    76    77    2
    35    87    86    1
    36    87    88    2
    37    86    89    1
    38    86    85    1
    39    89    90    1
    40    44    42    1
    41    42    43    1
    42    42    41    2
    43    92    91    2
    44    41    40    1
    45    40    39    1
    46    90    91    1
    47    91    93   am
    48    39    38    1
    49    38    35    1
    50    61    60    1
    51    35    34    1
    52    35    36    1
    53    72    71    1
    54    60    62    1
    55    60    59    1
    56    73    71    1
    57    34    29   am
    58    71    70    2
    59    30    29    2
    60    29    28    1
    61    50    49    1
    62    45    36   am
    63    45    46    1
    64    36    37    2
    65    27    28    1
    66    27    33    1
    67    28    31    1
    68    59    56    1
    69    51    52    1
    70    51    47   am
    71    52    53    1
    72    70    69    1
    73    55    53   am
    74    55    56    1
    75    69    68    1
    76    49    46    1
    77    53    54    2
    78    46    47    1
    79    56    57    1
    80    47    48    2
    81    33    32    1
    82    31    32    1
    83    68    67    1
    84    57    58    2
    85    67    64    1
    86    64    63    1
    87    64    65    1
    88    65    66    2
