@<TRIPOS>MOLECULE
tmp/1smcA00.pdb
 108 102 0 0 0
SMALL
GASTEIGER

@<TRIPOS>ATOM
      1  N         16.0790  -19.4060   -3.9180 N.3    43  LEU43      -0.1245
      2  CA        16.5920  -18.4700   -4.8650 C.3    43  LEU43       0.1561
      3  C         16.0280  -18.9690   -6.1790 C.2    43  LEU43       0.2260
      4  O         16.4000  -20.0310   -6.6660 O.2    43  LEU43      -0.2867
      5  CB        18.1150  -18.4850   -4.8250 C.3    43  LEU43       0.0270
      6  CG        18.8400  -17.4680   -5.7070 C.3    43  LEU43       0.0019
      7  CD1       18.4990  -16.0240   -5.3710 C.3    43  LEU43       0.0001
      8  CD2       20.3650  -17.7340   -5.6540 C.3    43  LEU43       0.0001
      9  N         14.2740   -4.9810   -7.6940 N.3    60  VAL60      -0.1245
     10  CA        13.3330   -6.1070   -7.6470 C.3    60  VAL60       0.1561
     11  C         12.4150   -5.9210   -6.4690 C.2    60  VAL60       0.2260
     12  O         12.8460   -6.0410   -5.3160 O.2    60  VAL60      -0.2867
     13  CB        14.0870   -7.4360   -7.5110 C.3    60  VAL60       0.0252
     14  CG1       13.1430   -8.6240   -7.4800 C.3    60  VAL60       0.0019
     15  CG2       15.0150   -7.6140   -8.7250 C.3    60  VAL60       0.0019
     16  N         10.3160  -11.1890   -0.3720 N.3    74  ILE74      -0.1245
     17  CA        11.6370  -11.2670   -0.9820 C.3    74  ILE74       0.1561
     18  C         12.6370  -10.8830    0.0800 C.2    74  ILE74       0.2260
     19  O         12.5460   -9.7810    0.5770 O.2    74  ILE74      -0.2867
     20  CB        11.7160  -10.3410   -2.2730 C.3    74  ILE74       0.0252
     21  CG1       10.7320  -10.8780   -3.3190 C.3    74  ILE74       0.0019
     22  CG2       13.0700  -10.4640   -2.8300 C.3    74  ILE74       0.0019
     23  CD1       10.6770  -10.1520   -4.6740 C.3    74  ILE74       0.0001
     24  N         15.8300  -10.1160    0.3160 N.3    76  ASN76      -0.1240
     25  CA        16.7330   -8.9790    0.1480 C.3    76  ASN76       0.1653
     26  C         15.9820   -7.7870   -0.4240 C.2    76  ASN76       0.2266
     27  O         16.5950   -6.9280   -1.0550 O.2    76  ASN76      -0.2867
     28  CB        17.9140   -9.3530   -0.7630 C.3    76  ASN76       0.1155
     29  CG        17.4540   -9.7790   -2.1290 C.2    76  ASN76       0.2627
     30  OD1       16.3170  -10.2870   -2.2870 O.2    76  ASN76      -0.2716
     31  ND2       18.2820   -9.5230   -3.1560 N.am   76  ASN76      -0.0877
     32  N         15.5520   -5.9340   -4.1030 N.3    79  GLY79      -0.1210
     33  CA        16.7630   -6.4710   -4.7210 C.3    79  GLY79       0.1956
     34  C         17.4510   -5.4470   -5.6290 C.2    79  GLY79       0.2613
     35  O         16.7790   -4.7890   -6.4070 O.2    79  GLY79      -0.2717
     36  N         18.7750   -5.3240   -5.5070 N.am   80  THR80      -0.1938
     37  CA        19.5460   -4.3160   -6.1780 C.3    80  THR80       0.2028
     38  C         20.2940   -4.9260   -7.3440 C.2    80  THR80       0.2642
     39  O         21.1590   -5.7720   -7.1430 O.2    80  THR80      -0.2714
     40  CB        20.5350   -3.7180   -5.1330 C.3    80  THR80       0.1808
     41  OG1       19.7840   -3.2740   -3.9920 O.3    80  THR80      -0.2208
     42  CG2       21.2580   -2.4990   -5.6100 C.3    80  THR80       0.0379
     43  N         19.9570   -4.4920   -8.5540 N.am   81  ILE81      -0.1963
     44  CA        20.6190   -4.9260   -9.8240 C.3    81  ILE81       0.1727
     45  C         21.5250   -3.8300  -10.3540 C.2    81  ILE81       0.2616
     46  O         21.0390   -2.7680  -10.7860 O.2    81  ILE81      -0.2715
     47  CB        19.6030   -5.2960  -10.9360 C.3    81  ILE81       0.0290
     48  CG1       18.4220   -6.1470  -10.3860 C.3    81  ILE81       0.0022
     49  CG2       20.3010   -5.9430  -12.1370 C.3    81  ILE81       0.0023
     50  CD1       18.7550   -7.5690   -9.9420 C.3    81  ILE81       0.0001
     51  N         22.8310   -4.0930  -10.3210 N.am   82  ASP82      -0.1971
     52  CA        23.7820   -3.0670  -10.6250 C.3    82  ASP82       0.1709
     53  C         23.9350   -2.9940  -12.1190 C.2    82  ASP82       0.2293
     54  O         23.7550   -4.0180  -12.8280 O.2    82  ASP82      -0.2864
     55  CB        25.1210   -3.3560   -9.9980 C.3    82  ASP82       0.1436
     56  CG        25.0470   -3.4570   -8.4740 C.2    82  ASP82       0.3671
     57  OD1       24.8480   -2.4040   -7.8390 O.co2  82  ASP82      -0.2456
     58  OD2       25.1650   -4.5540   -7.8680 O.co2  82  ASP82      -0.2456
     59  N         25.9940   -5.6980  -13.8950 N.3    85  TYR85      -0.1241
     60  CA        25.5670   -7.0810  -13.7870 C.3    85  TYR85       0.1605
     61  C         25.0130   -7.6200  -15.1010 C.2    85  TYR85       0.2264
     62  O         24.0700   -7.0580  -15.6600 O.2    85  TYR85      -0.2867
     63  CB        24.5550   -7.2800  -12.6530 C.3    85  TYR85       0.0534
     64  CG        24.1520   -8.6950  -12.3910 C.ar   85  TYR85      -0.0201
     65  CD1       25.0410   -9.5800  -11.8130 C.ar   85  TYR85      -0.0009
     66  CD2       22.8670   -9.1630  -12.6870 C.ar   85  TYR85      -0.0009
     67  CE1       24.6920  -10.8990  -11.5240 C.ar   85  TYR85       0.0417
     68  CE2       22.5280  -10.4770  -12.3970 C.ar   85  TYR85       0.0417
     69  CZ        23.4320  -11.3400  -11.7900 C.ar   85  TYR85       0.1957
     70  OH        23.1480  -12.6940  -11.5180 O.3    85  TYR85      -0.2866
     71  N         22.0780  -13.7240  -14.6650 N.3    88  GLU88      -0.1231
     72  CA        20.6460  -13.9790  -14.5220 C.3    88  GLU88       0.1699
     73  C         20.1130  -13.2920  -13.2980 C.2    88  GLU88       0.2592
     74  O         20.7140  -13.3910  -12.2180 O.2    88  GLU88      -0.2718
     75  CB        20.3700  -15.4920  -14.4030 C.3    88  GLU88       0.0402
     76  CG        18.9050  -15.8730  -14.3760 C.3    88  GLU88       0.1161
     77  CD        18.6390  -17.3440  -14.7560 C.2    88  GLU88       0.3649
     78  OE1       19.5560  -18.1750  -14.6770 O.co2  88  GLU88      -0.2457
     79  OE2       17.4860  -17.6320  -15.1210 O.co2  88  GLU88      -0.2457
     80  N         18.9600  -12.6360  -13.4680 N.am   89  ILE89      -0.1966
     81  CA        18.2130  -12.1080  -12.3380 C.3    89  ILE89       0.1727
     82  C         17.5750  -13.2610  -11.5650 C.2    89  ILE89       0.2616
     83  O         16.7890  -14.0700  -12.1570 O.2    89  ILE89      -0.2715
     84  CB        17.1440  -11.0640  -12.7460 C.3    89  ILE89       0.0290
     85  CG1       17.7560   -9.8380  -13.4210 C.3    89  ILE89       0.0022
     86  CG2       16.3270  -10.5960  -11.4830 C.3    89  ILE89       0.0023
     87  CD1       16.6360   -8.8310  -13.9570 C.3    89  ILE89       0.0001
     88  N         17.9180  -13.3290  -10.2630 N.am   90  LYS90      -0.1963
     89  CA        17.3590  -14.3520   -9.3430 C.3    90  LYS90       0.1728
     90  C         16.5820  -13.6640   -8.2070 C.2    90  LYS90       0.2616
     91  O         16.9800  -12.6120   -7.7900 O.2    90  LYS90      -0.2715
     92  CB        18.4450  -15.2970   -8.7740 C.3    90  LYS90       0.0311
     93  CG        19.2310  -15.9760   -9.9220 C.3    90  LYS90       0.0038
     94  CD        20.1290  -17.1470   -9.5310 C.3    90  LYS90       0.0206
     95  CE        21.1180  -17.4870  -10.6980 C.3    90  LYS90       0.1093
     96  NZ        22.1530  -18.4490  -10.2880 N.3    90  LYS90      -0.1314
     97  N         15.5050  -14.2590   -7.7200 N.am   91  VAL91      -0.1963
     98  CA        14.6290  -13.6770   -6.7490 C.3    91  VAL91       0.1727
     99  C         14.6130  -14.5900   -5.5650 C.2    91  VAL91       0.2616
    100  O         14.3250  -15.8020   -5.6970 O.2    91  VAL91      -0.2715
    101  CB        13.2150  -13.5940   -7.3010 C.3    91  VAL91       0.0290
    102  CG1       12.2720  -12.9600   -6.2670 C.3    91  VAL91       0.0023
    103  CG2       13.2190  -12.8170   -8.5730 C.3    91  VAL91       0.0023
    104  N         14.9700  -14.0180   -4.4230 N.am   92  ALA92      -0.1977
    105  CA        15.1010  -14.7360   -3.1520 C.3    92  ALA92       0.1597
    106  C         13.7460  -14.7230   -2.4870 C.2    92  ALA92       0.2287
    107  O         13.4780  -13.9000   -1.6490 O.2    92  ALA92      -0.2864
    108  CB        16.1270  -14.0390   -2.2550 C.3    92  ALA92       0.0319
@<TRIPOS>BOND
     1    62    61    2
     2    79    77   ar
     3    61    60    1
     4    77    78   ar
     5    77    76    1
     6    71    72    1
     7    72    75    1
     8    72    73    1
     9    75    76    1
    10    87    85    1
    11    59    60    1
    12    60    63    1
    13    80    73   am
    14    80    81    1
    15    85    84    1
    16    73    74    2
    17    54    53    2
    18    84    81    1
    19    84    86    1
    20    66    68   ar
    21    66    64   ar
    22    63    64    1
    23    68    69   ar
    24    64    65   ar
    25    81    82    1
    26    83    82    2
    27    49    47    1
    28    53    52    1
    29    65    67   ar
    30    69    67   ar
    31    69    70    1
    32    82    88   am
    33    47    48    1
    34    47    44    1
    35    46    45    2
    36    95    96    1
    37    95    94    1
    38    52    51    1
    39    52    55    1
    40    48    50    1
    41    45    51   am
    42    45    44    1
    43    88    89    1
    44    55    56    1
    45    93    94    1
    46    93    92    1
    47    44    43    1
    48    89    92    1
    49    89    90    1
    50    15    13    1
    51   103   101    1
    52    43    38   am
    53    56    58   ar
    54    56    57   ar
    55    90    91    2
    56    90    97   am
    57    97    98    1
    58     9    10    1
    59    10    13    1
    60    10    11    1
    61    13    14    1
    62    38    39    2
    63    38    37    1
    64   101    98    1
    65   101   102    1
    66    98    99    1
    67     4     3    2
    68    11    12    2
    69    35    34    2
    70     3     2    1
    71    37    36    1
    72    37    40    1
    73     6     8    1
    74     6     7    1
    75     6     5    1
    76   100    99    2
    77    34    36   am
    78    34    33    1
    79    42    40    1
    80    99   104   am
    81    40    41    1
    82     2     5    1
    83     2     1    1
    84    33    32    1
    85    23    21    1
    86   104   105    1
    87    21    20    1
    88    31    29   am
    89   105   106    1
    90   105   108    1
    91    22    20    1
    92   106   107    2
    93    30    29    2
    94    20    17    1
    95    29    28    1
    96    27    26    2
    97    17    16    1
    98    17    18    1
    99    28    25    1
   100    26    25    1
   101    18    19    2
   102    25    24    1
