@<TRIPOS>MOLECULE
tmp/1smhA00.pdb
 115 114 0 0 0
SMALL
GASTEIGER

@<TRIPOS>ATOM
      1  N         30.3010   22.3740   27.7540 N.3    14  SER14      -0.1202
      2  CA        30.2790   22.9020   29.1180 C.3    14  SER14       0.2020
      3  C         28.8280   23.1550   29.5990 C.2    14  SER14       0.2618
      4  O         28.5260   23.0520   30.7870 O.2    14  SER14      -0.2717
      5  CB        31.1460   24.1720   29.1840 C.3    14  SER14       0.2103
      6  OG        30.7740   25.0320   30.2520 O.3    14  SER14      -0.2182
      7  N         27.9380   23.4820   28.6650 N.am   15  VAL15      -0.1979
      8  CA        26.5280   23.6540   28.9760 C.3    15  VAL15       0.1595
      9  C         25.8650   22.2860   29.2160 C.2    15  VAL15       0.2287
     10  O         25.0600   22.1520   30.1150 O.2    15  VAL15      -0.2864
     11  CB        25.8050   24.4590   27.8590 C.3    15  VAL15       0.0276
     12  CG1       24.2770   24.4040   28.0280 C.3    15  VAL15       0.0022
     13  CG2       26.2900   25.9110   27.8560 C.3    15  VAL15       0.0022
     14  N         26.9700   21.1830   32.6890 N.3    18  PHE18      -0.1227
     15  CA        26.2120   22.0370   33.6020 C.3    18  PHE18       0.1736
     16  C         24.7580   21.5640   33.7400 C.2    18  PHE18       0.2595
     17  O         24.2220   21.4940   34.8380 O.2    18  PHE18      -0.2718
     18  CB        26.2200   23.5010   33.1410 C.3    18  PHE18       0.0547
     19  CG        25.2990   24.3800   33.9450 C.ar   18  PHE18      -0.0202
     20  CD1       25.7060   24.9030   35.1600 C.ar   18  PHE18      -0.0042
     21  CD2       24.0090   24.6500   33.4970 C.ar   18  PHE18      -0.0042
     22  CE1       24.8450   25.6870   35.9100 C.ar   18  PHE18      -0.0003
     23  CE2       23.1430   25.4250   34.2450 C.ar   18  PHE18      -0.0003
     24  CZ        23.5610   25.9480   35.4520 C.ar   18  PHE18      -0.0000
     25  N         24.1360   21.2440   32.6160 N.am   19  LEU19      -0.1980
     26  CA        22.7210   20.8700   32.6020 C.3    19  LEU19       0.1596
     27  C         22.4680   19.5060   33.2680 C.2    19  LEU19       0.2287
     28  O         21.5050   19.3560   34.0120 O.2    19  LEU19      -0.2864
     29  CB        22.1530   20.8930   31.1850 C.3    19  LEU19       0.0297
     30  CG        21.8500   22.2940   30.6400 C.3    19  LEU19       0.0022
     31  CD1       21.3140   22.2000   29.2330 C.3    19  LEU19       0.0001
     32  CD2       20.8990   23.0600   31.5320 C.3    19  LEU19       0.0001
     33  N         18.7720   28.9280   39.4200 N.3   100  PHE100     -0.1241
     34  CA        19.3380   29.5120   38.2160 C.3   100  PHE100      0.1605
     35  C         19.3880   31.0330   38.3800 C.2   100  PHE100      0.2264
     36  O         18.5380   31.5960   39.0600 O.2   100  PHE100     -0.2867
     37  CB        18.4510   29.1510   37.0430 C.3   100  PHE100      0.0534
     38  CG        19.1030   29.2890   35.7280 C.ar  100  PHE100     -0.0203
     39  CD1       20.0600   28.3890   35.3340 C.ar  100  PHE100     -0.0042
     40  CD2       18.7570   30.3290   34.8760 C.ar  100  PHE100     -0.0042
     41  CE1       20.6620   28.5080   34.1440 C.ar  100  PHE100     -0.0003
     42  CE2       19.3290   30.4450   33.6710 C.ar  100  PHE100     -0.0003
     43  CZ        20.3040   29.5320   33.2840 C.ar  100  PHE100     -0.0000
     44  N         18.2120   31.4640   28.0740 N.3   152  LEU152     -0.1245
     45  CA        18.9480   30.5830   28.9560 C.3   152  LEU152      0.1561
     46  C         18.0670   30.0190   30.0340 C.2   152  LEU152      0.2260
     47  O         18.1960   28.8560   30.3910 O.2   152  LEU152     -0.2867
     48  CB        20.1230   31.3130   29.5990 C.3   152  LEU152      0.0270
     49  CG        21.2230   31.8440   28.6630 C.3   152  LEU152      0.0019
     50  CD1       22.0480   32.8790   29.3930 C.3   152  LEU152      0.0001
     51  CD2       22.1060   30.7030   28.1730 C.3   152  LEU152      0.0001
     52  N         16.0070   27.3440   28.3490 N.3   155  GLU155     -0.1231
     53  CA        16.8640   26.1770   28.1050 C.3   155  GLU155      0.1699
     54  C         16.9950   25.3780   29.4030 C.2   155  GLU155      0.2592
     55  O         16.8640   24.1620   29.4000 O.2   155  GLU155     -0.2718
     56  CB        18.2380   26.6110   27.5910 C.3   155  GLU155      0.0402
     57  CG        19.1490   25.4670   27.1610 C.3   155  GLU155      0.1161
     58  CD        20.5940   25.9150   26.8280 C.2   155  GLU155      0.3649
     59  OE1       21.0180   27.0330   27.2070 O.co2 155  GLU155     -0.2457
     60  OE2       21.3180   25.1160   26.2060 O.co2 155  GLU155     -0.2457
     61  N         17.2250   26.0740   30.5140 N.am  156  TYR156     -0.1976
     62  CA        17.3210   25.4320   31.8120 C.3   156  TYR156      0.1639
     63  C         16.0010   24.7370   32.2820 C.2   156  TYR156      0.2290
     64  O         15.9840   23.5370   32.5960 O.2   156  TYR156     -0.2864
     65  CB        17.8340   26.4560   32.8380 C.3   156  TYR156      0.0560
     66  CG        17.7600   25.9700   34.2560 C.ar  156  TYR156     -0.0198
     67  CD1       18.7860   25.2010   34.8260 C.ar  156  TYR156     -0.0009
     68  CD2       16.6530   26.2540   35.0290 C.ar  156  TYR156     -0.0009
     69  CE1       18.6870   24.7610   36.1380 C.ar  156  TYR156      0.0417
     70  CE2       16.5440   25.8080   36.3350 C.ar  156  TYR156      0.0417
     71  CZ        17.5350   25.0480   36.8790 C.ar  156  TYR156      0.1957
     72  OH        17.3780   24.6200   38.1800 O.3   156  TYR156     -0.2866
     73  N         26.9510   34.6020   25.5290 N.3   301  TRP301     -0.1227
     74  CA        25.9620   33.8250   26.2810 C.3   301  TRP301      0.1737
     75  C         26.4940   33.4660   27.6500 C.2   301  TRP301      0.2595
     76  O         25.7990   33.6020   28.6620 O.2   301  TRP301     -0.2718
     77  CB        25.5450   32.5890   25.4950 C.3   301  TRP301      0.0564
     78  CG        24.7100   32.9330   24.3300 C.ar  301  TRP301      0.0003
     79  CD1       25.1020   32.9900   23.0320 C.ar  301  TRP301      0.0946
     80  CD2       23.3230   33.3240   24.3490 C.ar  301  TRP301      0.0152
     81  NE1       24.0530   33.3770   22.2400 N.ar  301  TRP301     -0.2442
     82  CE2       22.9430   33.5810   23.0210 C.ar  301  TRP301      0.0810
     83  CE3       22.3560   33.4350   25.3540 C.ar  301  TRP301      0.0012
     84  CZ2       21.6290   33.9730   22.6610 C.ar  301  TRP301      0.0191
     85  CZ3       21.0540   33.8180   25.0000 C.ar  301  TRP301      0.0001
     86  CH2       20.7090   34.0950   23.6700 C.ar  301  TRP301      0.0015
     87  N         27.7560   33.0790   27.7030 N.am  302  ILE302     -0.1980
     88  CA        28.3750   32.7140   28.9690 C.3   302  ILE302      0.1595
     89  C         28.4950   33.9490   29.8810 C.2   302  ILE302      0.2287
     90  O         28.2470   33.8640   31.0770 O.2   302  ILE302     -0.2864
     91  CB        29.7610   32.0750   28.7200 C.3   302  ILE302      0.0276
     92  CG1       29.6320   30.7880   27.8990 C.3   302  ILE302      0.0022
     93  CG2       30.5000   31.8210   30.0700 C.3   302  ILE302      0.0022
     94  CD1       29.1120   29.5870   28.6800 C.3   302  ILE302      0.0001
     95  N         25.0950   34.5510   31.3760 N.3   305  TYR305     -0.1227
     96  CA        24.9330   33.6190   32.4970 C.3   305  TYR305      0.1736
     97  C         25.6880   34.0670   33.7490 C.2   305  TYR305      0.2595
     98  O         25.1490   34.0400   34.8540 O.2   305  TYR305     -0.2718
     99  CB        25.3930   32.2110   32.1350 C.3   305  TYR305      0.0548
    100  CG        25.3660   31.2960   33.3390 C.ar  305  TYR305     -0.0200
    101  CD1       24.1780   30.6750   33.7440 C.ar  305  TYR305     -0.0009
    102  CD2       26.5240   31.0560   34.0860 C.ar  305  TYR305     -0.0009
    103  CE1       24.1450   29.8520   34.8630 C.ar  305  TYR305      0.0417
    104  CE2       26.5000   30.2390   35.1960 C.ar  305  TYR305      0.0417
    105  CZ        25.3110   29.6330   35.5850 C.ar  305  TYR305      0.1957
    106  OH        25.3010   28.8210   36.7020 O.3   305  TYR305     -0.2866
    107  N         26.9340   34.4940   33.5730 N.am  306  GLN306     -0.1979
    108  CA        27.7780   34.8810   34.7000 C.3   306  GLN306      0.1601
    109  C         27.4700   36.2830   35.2030 C.2   306  GLN306      0.2287
    110  O         28.0130   36.6820   36.2100 O.2   306  GLN306     -0.2864
    111  CB        29.2560   34.7630   34.3310 C.3   306  GLN306      0.0394
    112  CG        29.6720   33.3370   34.0440 C.3   306  GLN306      0.0908
    113  CD        31.1540   33.2200   33.6900 C.2   306  GLN306      0.2608
    114  OE1       31.6520   33.9350   32.8270 O.2   306  GLN306     -0.2717
    115  NE2       31.8430   32.3090   34.3530 N.am  306  GLN306     -0.0878
@<TRIPOS>BOND
     1    81    82   ar
     2    81    79   ar
     3    84    82   ar
     4    84    86   ar
     5    82    80   ar
     6    79    78   ar
     7    86    85   ar
     8    78    80   ar
     9    78    77    1
    10    80    83   ar
    11    85    83   ar
    12    77    74    1
    13    73    74    1
    14    60    58   ar
    15    74    75    1
    16    58    57    1
    17    58    59   ar
    18    57    56    1
    19    56    53    1
    20    75    87   am
    21    75    76    2
    22    87    88    1
    23     1     2    1
    24    13    11    1
    25    11    12    1
    26    11     8    1
    27    92    94    1
    28    92    91    1
    29    44    45    1
    30    53    52    1
    31    53    54    1
    32    51    49    1
    33    49    50    1
    34    49    48    1
    35     7     8    1
    36     7     3   am
    37    91    88    1
    38    91    93    1
    39    45    48    1
    40    45    46    1
    41    88    89    1
    42     8     9    1
    43     2     5    1
    44     2     3    1
    45     5     6    1
    46     9    10    2
    47    31    30    1
    48    55    54    2
    49    54    61   am
    50     3     4    2
    51    89    90    2
    52    46    47    2
    53    61    62    1
    54    30    29    1
    55    30    32    1
    56    29    26    1
    57    95    96    1
    58    62    63    1
    59    62    65    1
    60    99    96    1
    61    99   100    1
    62    63    64    2
    63    96    97    1
    64    26    25    1
    65    26    27    1
    66    25    16   am
    67    14    15    1
    68   114   113    2
    69    65    66    1
    70    18    15    1
    71    18    19    1
    72    27    28    2
    73    43    42   ar
    74    43    41   ar
    75   100   101   ar
    76   100   102   ar
    77    21    19   ar
    78    21    23   ar
    79   107    97   am
    80   107   108    1
    81    15    16    1
    82    42    40   ar
    83   113   112    1
    84   113   115   am
    85    16    17    2
    86   101   103   ar
    87    97    98    2
    88    19    20   ar
    89   112   111    1
    90   102   104   ar
    91    41    39   ar
    92    23    24   ar
    93    66    67   ar
    94    66    68   ar
    95   111   108    1
    96   108   109    1
    97    67    69   ar
    98   103   105   ar
    99    40    38   ar
   100    68    70   ar
   101    20    22   ar
   102   104   105   ar
   103   109   110    2
   104    39    38   ar
   105    24    22   ar
   106   105   106    1
   107    38    37    1
   108    69    71   ar
   109    70    71   ar
   110    71    72    1
   111    37    34    1
   112    34    35    1
   113    34    33    1
   114    35    36    2
