@<TRIPOS>MOLECULE
tmp/1smkC00.pdb
 120 107 0 0 0
SMALL
GASTEIGER

@<TRIPOS>ATOM
      1  N         28.8720   67.4690   78.8830 N.3    13  ILE13      -0.1245
      2  CA        28.6970   67.8470   77.4870 C.3    13  ILE13       0.1561
      3  C         29.9900   68.4480   76.9390 C.2    13  ILE13       0.2260
      4  O         30.4780   68.0670   75.8600 O.2    13  ILE13      -0.2867
      5  CB        27.6020   68.9210   77.3230 C.3    13  ILE13       0.0252
      6  CG1       26.2330   68.3560   77.7100 C.3    13  ILE13       0.0019
      7  CG2       27.6010   69.4370   75.8890 C.3    13  ILE13       0.0019
      8  CD1       25.2260   69.4590   78.0340 C.3    13  ILE13       0.0001
      9  N         20.2610   68.2320   85.5750 N.3    81  ARG81      -0.1245
     10  CA        19.2310   67.8830   86.5340 C.3    81  ARG81       0.1563
     11  C         19.2980   66.4340   86.9700 C.2    81  ARG81       0.2260
     12  O         19.9230   65.5980   86.3230 O.2    81  ARG81      -0.2867
     13  CB        17.8370   68.2090   85.9840 C.3    81  ARG81       0.0307
     14  CG        17.5770   67.7770   84.5630 C.3    81  ARG81       0.0489
     15  CD        16.1300   68.0580   84.1980 C.3    81  ARG81       0.2205
     16  NE        15.8280   67.7120   82.8110 N.pl3  81  ARG81      -0.0865
     17  CZ        14.6650   67.2090   82.4030 C.cat  81  ARG81       0.5346
     18  NH1       13.6930   66.9850   83.2820 N.pl3  81  ARG81       0.1354
     19  NH2       14.4670   66.9440   81.1140 N.pl3  81  ARG81       0.1354
     20  N         13.5900   70.7850   83.6830 N.3    87  ARG87      -0.1245
     21  CA        14.6640   71.6500   83.2160 C.3    87  ARG87       0.1563
     22  C         14.5800   73.0200   83.9120 C.2    87  ARG87       0.2260
     23  O         15.5970   73.6560   84.1790 O.2    87  ARG87      -0.2867
     24  CB        14.6040   71.7770   81.6790 C.3    87  ARG87       0.0307
     25  CG        15.5070   70.7540   80.9610 C.3    87  ARG87       0.0489
     26  CD        15.3020   70.6660   79.4420 C.3    87  ARG87       0.2205
     27  NE        14.0700   69.9520   79.1260 N.pl3  87  ARG87      -0.0865
     28  CZ        13.9860   68.8770   78.3470 C.cat  87  ARG87       0.5346
     29  NH1       15.0600   68.3560   77.7710 N.pl3  87  ARG87       0.1354
     30  NH2       12.8100   68.3100   78.1570 N.pl3  87  ARG87       0.1354
     31  N         16.4890   73.9470   87.2680 N.3    90  LEU90      -0.1245
     32  CA        17.8980   74.2920   87.2000 C.3    90  LEU90       0.1561
     33  C         18.0770   75.7990   87.0770 C.2    90  LEU90       0.2260
     34  O         19.2020   76.2940   87.0040 O.2    90  LEU90      -0.2867
     35  CB        18.5300   73.6240   85.9810 C.3    90  LEU90       0.0270
     36  CG        18.6100   72.1020   85.9900 C.3    90  LEU90       0.0019
     37  CD1       18.9150   71.5870   84.5860 C.3    90  LEU90       0.0001
     38  CD2       19.6790   71.6720   86.9780 C.3    90  LEU90       0.0001
     39  N         23.4790   76.7000   75.2110 N.3   117  ILE117     -0.1245
     40  CA        22.8760   75.3970   75.4680 C.3   117  ILE117      0.1561
     41  C         22.2520   75.3240   76.8620 C.2   117  ILE117      0.2260
     42  O         21.1990   74.7140   77.0590 O.2   117  ILE117     -0.2867
     43  CB        23.9270   74.2890   75.3540 C.3   117  ILE117      0.0252
     44  CG1       24.5710   74.3220   73.9730 C.3   117  ILE117      0.0019
     45  CG2       23.2870   72.9350   75.5980 C.3   117  ILE117      0.0019
     46  CD1       25.7570   73.3990   73.8570 C.3   117  ILE117      0.0001
     47  N         20.5740   74.9910   80.2620 N.3   119  ASN119     -0.1240
     48  CA        19.1600   74.8760   80.6090 C.3   119  ASN119      0.1653
     49  C         18.7850   75.7630   81.7880 C.2   119  ASN119      0.2266
     50  O         19.5900   75.9680   82.6920 O.2   119  ASN119     -0.2867
     51  CB        18.7980   73.4300   80.9600 C.3   119  ASN119      0.1155
     52  CG        18.4810   72.5980   79.7380 C.2   119  ASN119      0.2627
     53  OD1       17.7430   73.0400   78.8420 O.2   119  ASN119     -0.2716
     54  ND2       19.0230   71.3840   79.6920 N.am  119  ASN119     -0.0877
     55  N         16.9210   76.6290   78.4510 N.3   121  VAL121     -0.1245
     56  CA        17.0510   77.4870   77.2910 C.3   121  VAL121      0.1561
     57  C         15.8880   78.4480   77.1150 C.2   121  VAL121      0.2260
     58  O         16.0920   79.6070   76.7590 O.2   121  VAL121     -0.2867
     59  CB        17.1810   76.6600   76.0150 C.3   121  VAL121      0.0252
     60  CG1       17.4790   77.5700   74.8490 C.3   121  VAL121      0.0019
     61  CG2       18.2870   75.6320   76.1790 C.3   121  VAL121      0.0019
     62  N         19.1790   69.2120   69.5290 N.3   149  LEU149     -0.1245
     63  CA        18.9470   67.8710   70.0480 C.3   149  LEU149      0.1561
     64  C         17.5070   67.4150   69.8590 C.2   149  LEU149      0.2260
     65  O         17.2570   66.2220   69.7200 O.2   149  LEU149     -0.2867
     66  CB        19.3380   67.7820   71.5230 C.3   149  LEU149      0.0270
     67  CG        19.3090   66.3870   72.1740 C.3   149  LEU149      0.0019
     68  CD1       20.0860   65.3650   71.3500 C.3   149  LEU149      0.0001
     69  CD2       19.8930   66.4950   73.5800 C.3   149  LEU149      0.0001
     70  N         16.6730   64.0480   67.9370 N.3   153  ARG153     -0.1245
     71  CA        15.8060   63.0220   68.4960 C.3   153  ARG153      0.1563
     72  C         14.6080   62.7750   67.5970 C.2   153  ARG153      0.2260
     73  O         14.2480   61.6250   67.3550 O.2   153  ARG153     -0.2867
     74  CB        15.3290   63.4090   69.8950 C.3   153  ARG153      0.0307
     75  CG        16.3730   63.1980   70.9790 C.3   153  ARG153      0.0489
     76  CD        15.8840   63.7410   72.3140 C.3   153  ARG153      0.2205
     77  NE        16.9140   63.6480   73.3390 N.pl3 153  ARG153     -0.0865
     78  CZ        17.0490   64.5220   74.3320 C.cat 153  ARG153      0.5346
     79  NH1       16.2100   65.5520   74.4310 N.pl3 153  ARG153      0.1354
     80  NH2       18.0390   64.3800   75.2050 N.pl3 153  ARG153      0.1354
     81  N         12.5410   74.5150   74.1710 N.3   177  HIS177     -0.1241
     82  CA        13.1680   73.2560   74.5170 C.3   177  HIS177      0.1621
     83  C         12.7820   72.6910   75.8810 C.2   177  HIS177      0.2264
     84  O         13.6360   72.4540   76.7270 O.2   177  HIS177     -0.2867
     85  CB        14.6880   73.3850   74.4210 C.3   177  HIS177      0.0745
     86  CG        15.4080   72.1010   74.6880 C.ar  177  HIS177      0.0817
     87  ND1       15.1460   70.9460   73.9830 N.ar  177  HIS177     -0.2268
     88  CD2       16.3170   71.7660   75.6320 C.ar  177  HIS177      0.1154
     89  CE1       15.8580   69.9540   74.4840 C.ar  177  HIS177      0.1986
     90  NE2       16.5780   70.4250   75.4870 N.ar  177  HIS177     -0.2212
     91  N         14.6460   64.1480   76.7320 N.3   211  GLY211     -0.1225
     92  CA        15.6040   64.5830   77.7190 C.3   211  GLY211      0.1811
     93  C         15.3710   63.8700   79.0330 C.2   211  GLY211      0.2280
     94  O         16.2850   63.2840   79.6080 O.2   211  GLY211     -0.2866
     95  N         17.6410   61.2470   81.4340 N.3   215  VAL215     -0.1245
     96  CA        17.9210   61.5110   82.8410 C.3   215  VAL215      0.1561
     97  C         17.5250   60.2950   83.6890 C.2   215  VAL215      0.2260
     98  O         18.2870   59.8350   84.5440 O.2   215  VAL215     -0.2867
     99  CB        17.1490   62.7570   83.3510 C.3   215  VAL215      0.0252
    100  CG1       17.1570   62.7900   84.8720 C.3   215  VAL215      0.0019
    101  CG2       17.7890   64.0310   82.8030 C.3   215  VAL215      0.0019
    102  N         22.4580   64.2170   82.7380 N.3   223  SER223     -0.1202
    103  CA        21.5130   64.1340   81.6340 C.3   223  SER223      0.2020
    104  C         22.2440   63.9000   80.3220 C.2   223  SER223      0.2618
    105  O         23.4230   63.5510   80.3290 O.2   223  SER223     -0.2717
    106  CB        20.6740   65.4040   81.5610 C.3   223  SER223      0.2103
    107  OG        21.4700   66.5510   81.7590 O.3   223  SER223     -0.2182
    108  N         21.5470   64.0700   79.1990 N.am  224  ALA224     -0.1979
    109  CA        22.1470   63.8380   77.8840 C.3   224  ALA224      0.1597
    110  C         23.4880   64.5500   77.7650 C.2   224  ALA224      0.2287
    111  O         23.6080   65.7340   78.0500 O.2   224  ALA224     -0.2864
    112  CB        21.2130   64.2870   76.8010 C.3   224  ALA224      0.0319
    113  N         23.9960   65.1320   73.0620 N.3   228  MET228     -0.1245
    114  CA        23.9930   66.5910   73.1640 C.3   228  MET228      0.1570
    115  C         25.2570   67.1820   72.5410 C.2   228  MET228      0.2261
    116  O         25.1910   68.1460   71.7810 O.2   228  MET228     -0.2867
    117  CB        23.9070   67.0490   74.6190 C.3   228  MET228      0.0387
    118  CG        23.8460   68.5700   74.7700 C.3   228  MET228      0.0595
    119  SD        22.4310   69.2800   73.9060 S.3   228  MET228     -0.1393
    120  CE        23.2220   70.4840   72.8150 C.3   228  MET228      0.0692
@<TRIPOS>BOND
     1    73    72    2
     2    72    71    1
     3    70    71    1
     4    71    74    1
     5    62    63    1
     6    65    64    2
     7    64    63    1
     8    74    75    1
     9    63    66    1
    10    75    76    1
    11    68    67    1
    12    66    67    1
    13   116   115    2
    14    67    69    1
    15    76    77    1
    16   115   114    1
    17   120   119    1
    18   113   114    1
    19   114   117    1
    20    77    78    2
    21    46    44    1
    22   119   118    1
    23    44    43    1
    24    87    89   ar
    25    87    86   ar
    26    81    82    1
    27    78    79    1
    28    78    80    1
    29    85    82    1
    30    85    86    1
    31    89    90   ar
    32    82    83    1
    33   117   118    1
    34    86    88   ar
    35    60    59    1
    36    39    40    1
    37    43    40    1
    38    43    45    1
    39    40    41    1
    40    90    88   ar
    41     4     3    2
    42    83    84    2
    43     7     5    1
    44    59    61    1
    45    59    56    1
    46    91    92    1
    47    58    57    2
    48   112   109    1
    49    41    42    2
    50     3     2    1
    51    57    56    1
    52    56    55    1
    53     5     2    1
    54     5     6    1
    55     2     1    1
    56     6     8    1
    57    92    93    1
    58   110   109    1
    59   110   111    2
    60    29    28    1
    61   109   108    1
    62    30    28    1
    63    28    27    2
    64    53    52    2
    65    93    94    2
    66    27    26    1
    67   108   104   am
    68    26    25    1
    69    54    52   am
    70    52    51    1
    71    47    48    1
    72   104   105    2
    73   104   103    1
    74    48    51    1
    75    48    49    1
    76    25    24    1
    77    19    17    1
    78    95    96    1
    79   106   103    1
    80   106   107    1
    81   103   102    1
    82    24    21    1
    83    49    50    2
    84    17    16    2
    85    17    18    1
    86   101    99    1
    87    16    15    1
    88    96    99    1
    89    96    97    1
    90    21    20    1
    91    21    22    1
    92    99   100    1
    93    97    98    2
    94    22    23    2
    95    15    14    1
    96    14    13    1
    97    37    36    1
    98     9    10    1
    99    35    36    1
   100    35    32    1
   101    13    10    1
   102    36    38    1
   103    12    11    2
   104    10    11    1
   105    34    33    2
   106    33    32    1
   107    32    31    1
