@<TRIPOS>MOLECULE
tmp/1sn5A00.pdb
 75 67 0 0 0
SMALL
GASTEIGER

@<TRIPOS>ATOM
      1  N        -43.9480  -17.1000  -19.1900 N.3     6  LYS6       -0.1245
      2  CA       -43.8000  -18.3580  -19.9060 C.3     6  LYS6        0.1561
      3  C        -45.1270  -18.5770  -20.6310 C.2     6  LYS6        0.2260
      4  O        -46.1560  -18.9070  -20.0130 O.2     6  LYS6       -0.2867
      5  CB       -43.4880  -19.5200  -18.9720 C.3     6  LYS6        0.0271
      6  CG       -43.2310  -20.8350  -19.6980 C.3     6  LYS6        0.0035
      7  CD       -41.8990  -20.8070  -20.4460 C.3     6  LYS6        0.0206
      8  CE       -41.7330  -22.0230  -21.3530 C.3     6  LYS6        0.1093
      9  NZ       -40.3200  -22.1510  -21.8090 N.3     6  LYS6       -0.1314
     10  N        -47.3660  -20.5210  -23.4980 N.3     8  LEU8       -0.1245
     11  CA       -47.4900  -21.7350  -24.2950 C.3     8  LEU8        0.1561
     12  C        -48.6470  -21.6920  -25.2900 C.2     8  LEU8        0.2260
     13  O        -49.7320  -21.1800  -25.0060 O.2     8  LEU8       -0.2867
     14  CB       -47.6620  -22.9750  -23.4190 C.3     8  LEU8        0.0270
     15  CG       -46.7180  -23.1590  -22.2500 C.3     8  LEU8        0.0019
     16  CD1      -47.1300  -24.4030  -21.4800 C.3     8  LEU8        0.0001
     17  CD2      -45.3040  -23.2790  -22.7560 C.3     8  LEU8        0.0001
     18  N        -40.5030  -16.8480  -23.5400 N.3    45  GLU45      -0.1245
     19  CA       -40.0410  -16.0630  -22.3980 C.3    45  GLU45       0.1567
     20  C        -39.5270  -14.6890  -22.8380 C.2    45  GLU45       0.2260
     21  O        -39.3510  -14.4210  -24.0400 O.2    45  GLU45      -0.2867
     22  CB       -38.9210  -16.8030  -21.6670 C.3    45  GLU45       0.0388
     23  CG       -39.3050  -18.2160  -21.2460 C.3    45  GLU45       0.1160
     24  CD       -38.1590  -19.0220  -20.6640 C.2    45  GLU45       0.3649
     25  OE1      -37.0820  -18.4620  -20.3810 O.co2  45  GLU45      -0.2457
     26  OE2      -38.3410  -20.2360  -20.4770 O.co2  45  GLU45      -0.2457
     27  N        -43.4230  -15.6550  -11.9210 N.3    97  THR97      -0.1218
     28  CA       -43.4970  -16.1360  -13.2890 C.3    97  THR97       0.1862
     29  C        -44.9600  -16.2010  -13.6710 C.2    97  THR97       0.2287
     30  O        -45.7630  -16.8640  -13.0190 O.2    97  THR97      -0.2866
     31  CB       -42.8580  -17.5040  -13.4720 C.3    97  THR97       0.1770
     32  OG1      -41.4620  -17.4130  -13.1910 O.3    97  THR97      -0.2211
     33  CG2      -42.8890  -17.9010  -14.9410 C.3    97  THR97       0.0375
     34  N        -47.3540  -17.6020  -15.9870 N.3    99  ALA99      -0.1231
     35  CA       -47.5500  -18.6600  -16.9660 C.3    99  ALA99       0.1694
     36  C        -48.8740  -18.4140  -17.6940 C.2    99  ALA99       0.2592
     37  O        -49.8840  -18.0760  -17.0890 O.2    99  ALA99      -0.2718
     38  CB       -47.5370  -19.9980  -16.3190 C.3    99  ALA99       0.0304
     39  N        -48.8470  -18.5830  -19.0070 N.am  100  LEU100     -0.1966
     40  CA       -49.9930  -18.2820  -19.8220 C.3   100  LEU100      0.1728
     41  C        -50.1290  -19.3840  -20.8610 C.2   100  LEU100      0.2616
     42  O        -49.1980  -19.6270  -21.6360 O.2   100  LEU100     -0.2715
     43  CB       -49.7790  -16.9180  -20.4900 C.3   100  LEU100      0.0311
     44  CG       -50.9550  -16.1890  -21.1110 C.3   100  LEU100      0.0022
     45  CD1      -52.0220  -15.8310  -20.0750 C.3   100  LEU100      0.0001
     46  CD2      -50.4400  -14.9450  -21.8470 C.3   100  LEU100      0.0001
     47  N        -51.2690  -20.0630  -20.8500 N.am  101  LEU101     -0.1977
     48  CA       -51.5670  -21.1360  -21.7900 C.3   101  LEU101      0.1596
     49  C        -52.5920  -20.6040  -22.7820 C.2   101  LEU101      0.2287
     50  O        -53.6910  -20.2520  -22.3790 O.2   101  LEU101     -0.2864
     51  CB       -52.1300  -22.3300  -21.0430 C.3   101  LEU101      0.0297
     52  CG       -52.5700  -23.5410  -21.8570 C.3   101  LEU101      0.0022
     53  CD1      -51.4570  -23.9780  -22.7770 C.3   101  LEU101      0.0001
     54  CD2      -52.9820  -24.6740  -20.9260 C.3   101  LEU101      0.0001
     55  N        -55.3620  -19.4940  -20.0290 N.3   108  THR108     -0.1218
     56  CA       -55.2150  -19.7620  -18.6170 C.3   108  THR108      0.1862
     57  C        -54.0730  -18.9240  -18.1180 C.2   108  THR108      0.2287
     58  O        -52.9710  -18.9910  -18.6730 O.2   108  THR108     -0.2866
     59  CB       -54.8730  -21.2240  -18.3720 C.3   108  THR108      0.1770
     60  OG1      -55.9610  -22.0580  -18.7900 O.3   108  THR108     -0.2211
     61  CG2      -54.7140  -21.4890  -16.8900 C.3   108  THR108      0.0375
     62  N        -51.7940  -18.3260  -14.8600 N.3   110  THR110     -0.1218
     63  CA       -51.3280  -18.8650  -13.6150 C.3   110  THR110      0.1862
     64  C        -50.1380  -18.0400  -13.2220 C.2   110  THR110      0.2287
     65  O        -49.4630  -17.4480  -14.0810 O.2   110  THR110     -0.2866
     66  CB       -50.8570  -20.3200  -13.8260 C.3   110  THR110      0.1770
     67  OG1      -51.9480  -21.1110  -14.3080 O.3   110  THR110     -0.2211
     68  CG2      -50.4320  -20.9550  -12.5130 C.3   110  THR110      0.0375
     69  N        -46.6040  -18.2780  -10.6210 N.3   112  VAL112     -0.1245
     70  CA       -45.7230  -19.0680   -9.7690 C.3   112  VAL112      0.1561
     71  C        -44.9030  -18.0520   -8.9760 C.2   112  VAL112      0.2260
     72  O        -44.2420  -17.2160   -9.5710 O.2   112  VAL112     -0.2867
     73  CB       -44.7950  -19.9530  -10.5960 C.3   112  VAL112      0.0252
     74  CG1      -43.9140  -20.7880   -9.7140 C.3   112  VAL112      0.0019
     75  CG2      -45.5920  -20.8250  -11.5080 C.3   112  VAL112      0.0019
@<TRIPOS>BOND
     1    12    13    2
     2    12    11    1
     3    11    10    1
     4    11    14    1
     5    21    20    2
     6    18    19    1
     7    14    15    1
     8    20    19    1
     9    49    50    2
    10    49    48    1
    11    53    52    1
    12    17    15    1
    13    19    22    1
    14    15    16    1
    15    52    51    1
    16    52    54    1
    17    46    44    1
    18     9     8    1
    19    48    51    1
    20    48    47    1
    21    22    23    1
    22    42    41    2
    23     8     7    1
    24    23    24    1
    25    44    43    1
    26    44    45    1
    27    41    47   am
    28    41    40    1
    29    24    26   ar
    30    24    25   ar
    31     3     4    2
    32     3     2    1
    33    43    40    1
    34     7     6    1
    35    55    56    1
    36     2     1    1
    37     2     5    1
    38    40    39    1
    39     6     5    1
    40    39    36   am
    41    60    59    1
    42    58    57    2
    43    56    59    1
    44    56    57    1
    45    59    61    1
    46    36    37    2
    47    36    35    1
    48    35    38    1
    49    35    34    1
    50    33    31    1
    51    62    63    1
    52    67    66    1
    53    65    64    2
    54    66    63    1
    55    66    68    1
    56    29    28    1
    57    29    30    2
    58    63    64    1
    59    31    28    1
    60    31    32    1
    61    28    27    1
    62    75    73    1
    63    69    70    1
    64    73    70    1
    65    73    74    1
    66    70    71    1
    67    72    71    2
