@<TRIPOS>MOLECULE
tmp/1snfB00.pdb
 103 97 0 0 0
SMALL
GASTEIGER

@<TRIPOS>ATOM
      1  N         -4.1110   -6.9040    5.8310 N.3    44  LEU44      -0.1245
      2  CA        -4.1600   -5.8110    4.8660 C.3    44  LEU44       0.1561
      3  C         -5.0000   -4.6920    5.4680 C.2    44  LEU44       0.2260
      4  O         -6.1900   -4.8500    5.6810 O.2    44  LEU44      -0.2867
      5  CB        -4.8380   -6.3190    3.6010 C.3    44  LEU44       0.0270
      6  CG        -4.8320   -5.3180    2.4670 C.3    44  LEU44       0.0019
      7  CD1       -3.4320   -4.8690    2.0120 C.3    44  LEU44       0.0001
      8  CD2       -5.6380   -6.0370    1.3370 C.3    44  LEU44       0.0001
      9  N          5.7510    2.6550   -0.6740 N.3    61  VAL61      -0.1245
     10  CA         5.3200    2.4700    0.6960 C.3    61  VAL61       0.1561
     11  C          6.4110    1.7450    1.4670 C.2    61  VAL61       0.2260
     12  O          6.6960    0.5760    1.1410 O.2    61  VAL61      -0.2867
     13  CB         3.9830    1.7260    0.7840 C.3    61  VAL61       0.0252
     14  CG1        3.6030    1.5830    2.2390 C.3    61  VAL61       0.0019
     15  CG2        2.8670    2.4550    0.0040 C.3    61  VAL61       0.0019
     16  N          6.3130   -4.7770    6.5880 N.3    75  ILE75      -0.1245
     17  CA         5.3720   -4.7700    5.4720 C.3    75  ILE75       0.1561
     18  C          5.7870   -5.9150    4.5560 C.2    75  ILE75       0.2260
     19  O          6.8850   -5.9110    4.0490 O.2    75  ILE75      -0.2867
     20  CB         5.3660   -3.3920    4.7640 C.3    75  ILE75       0.0252
     21  CG1        4.9060   -2.3070    5.7520 C.3    75  ILE75       0.0019
     22  CG2        4.4640   -3.4330    3.6480 C.3    75  ILE75       0.0019
     23  CD1        5.1220   -0.8370    5.3430 C.3    75  ILE75       0.0001
     24  N          5.0530   -6.8200    1.4960 N.3    77  ASN77      -0.1240
     25  CA         5.5050   -6.4260    0.1780 C.3    77  ASN77       0.1653
     26  C          6.3850   -5.1970    0.1040 C.2    77  ASN77       0.2266
     27  O          6.4750   -4.6080   -0.9740 O.2    77  ASN77      -0.2867
     28  CB         4.3230   -6.3130   -0.7920 C.3    77  ASN77       0.1155
     29  CG         3.4040   -5.1550   -0.4150 C.2    77  ASN77       0.2627
     30  OD1        3.2920   -4.8210    0.7460 O.2    77  ASN77      -0.2716
     31  ND2        2.7860   -4.4960   -1.3860 N.am   77  ASN77      -0.0877
     32  N          6.0670   -1.2470   -1.0310 N.3    80  GLY80      -0.1210
     33  CA         4.8050   -1.3350   -1.7650 C.3    80  GLY80       0.1956
     34  C          4.8450   -0.3510   -2.9070 C.2    80  GLY80       0.2613
     35  O          5.2500    0.7890   -2.7700 O.2    80  GLY80      -0.2717
     36  N          4.4030   -0.7900   -4.0640 N.am   81  THR81      -0.1938
     37  CA         4.5580   -0.0290   -5.2910 C.3    81  THR81       0.2028
     38  C          3.2010    0.5050   -5.7500 C.2    81  THR81       0.2642
     39  O          2.3210   -0.3160   -6.0450 O.2    81  THR81      -0.2714
     40  CB         5.0830   -1.0030   -6.3460 C.3    81  THR81       0.1808
     41  OG1        6.3430   -1.5570   -5.9420 O.3    81  THR81      -0.2208
     42  CG2        5.5400   -0.2270   -7.5070 C.3    81  THR81       0.0379
     43  N          3.0290    1.8190   -5.7790 N.am   82  ILE82      -0.1963
     44  CA         1.7880    2.5200   -6.1500 C.3    82  ILE82       0.1727
     45  C          2.0130    3.1230   -7.5290 C.2    82  ILE82       0.2616
     46  O          2.7570    4.0980   -7.7320 O.2    82  ILE82      -0.2715
     47  CB         1.3820    3.6680   -5.1580 C.3    82  ILE82       0.0290
     48  CG1        1.4390    3.2680   -3.7070 C.3    82  ILE82       0.0022
     49  CG2        0.0500    4.3180   -5.5800 C.3    82  ILE82       0.0023
     50  CD1        0.6110    1.9990   -3.3270 C.3    82  ILE82       0.0001
     51  N          1.3630    2.5340   -8.5410 N.am   83  ASP83      -0.1971
     52  CA         1.5880    2.9600   -9.9080 C.3    83  ASP83       0.1709
     53  C          0.8240    4.2350  -10.1780 C.2    83  ASP83       0.2293
     54  O         -0.2030    4.4980   -9.5410 O.2    83  ASP83      -0.2864
     55  CB         1.0570    1.9110  -10.8380 C.3    83  ASP83       0.1436
     56  CG         1.8410    0.6270  -10.6880 C.2    83  ASP83       0.3671
     57  OD1        3.1000    0.6470  -10.8620 O.co2  83  ASP83      -0.2456
     58  OD2        1.1770   -0.3890  -10.3900 O.co2  83  ASP83      -0.2456
     59  N         -3.0140    4.1360  -10.5680 N.3    86  TYR86      -0.1241
     60  CA        -3.8460    3.5960   -9.4870 C.3    86  TYR86       0.1605
     61  C         -4.5860    4.7090   -8.6880 C.2    86  TYR86       0.2264
     62  O         -3.9450    5.6420   -8.1750 O.2    86  TYR86      -0.2867
     63  CB        -2.9560    2.7950   -8.5500 C.3    86  TYR86       0.0534
     64  CG        -3.7320    2.1090   -7.4710 C.ar   86  TYR86      -0.0201
     65  CD1       -4.6330    1.0770   -7.7170 C.ar   86  TYR86      -0.0009
     66  CD2       -3.6120    2.5710   -6.1730 C.ar   86  TYR86      -0.0009
     67  CE1       -5.3610    0.4660   -6.6700 C.ar   86  TYR86       0.0417
     68  CE2       -4.2890    1.9650   -5.1160 C.ar   86  TYR86       0.0417
     69  CZ        -5.1630    0.9120   -5.3790 C.ar   86  TYR86       0.1957
     70  OH        -5.8230    0.3930   -4.2750 O.3    86  TYR86      -0.2866
     71  N         -7.8380    2.9360   -2.9830 N.3    89  GLU89      -0.1231
     72  CA        -7.3000    3.1390   -1.6570 C.3    89  GLU89       0.1699
     73  C         -5.9280    2.4460   -1.4560 C.2    89  GLU89       0.2592
     74  O         -5.7620    1.3190   -1.8740 O.2    89  GLU89      -0.2718
     75  CB        -8.3370    2.6170   -0.6370 C.3    89  GLU89       0.0402
     76  CG        -7.9280    2.8400    0.8000 C.3    89  GLU89       0.1161
     77  CD        -9.0360    2.5650    1.7850 C.2    89  GLU89       0.3649
     78  OE1      -10.0570    1.9050    1.4660 O.co2  89  GLU89      -0.2457
     79  OE2       -8.8600    2.9720    2.9360 O.co2  89  GLU89      -0.2457
     80  N         -4.9980    3.1030   -0.7450 N.am   90  ILE90      -0.1966
     81  CA        -3.7220    2.5540   -0.3240 C.3    90  ILE90       0.1727
     82  C         -4.0340    1.6840    0.8900 C.2    90  ILE90       0.2616
     83  O         -4.6160    2.1330    1.8880 O.2    90  ILE90      -0.2715
     84  CB        -2.6260    3.6240    0.0300 C.3    90  ILE90       0.0290
     85  CG1       -2.3500    4.5160   -1.2170 C.3    90  ILE90       0.0022
     86  CG2       -1.3260    2.9450    0.5470 C.3    90  ILE90       0.0023
     87  CD1       -1.3320    5.6010   -0.8980 C.3    90  ILE90       0.0001
     88  N         -3.6270    0.4320    0.7720 N.am   91  LYS91      -0.1963
     89  CA        -3.7510   -0.5480    1.8370 C.3    91  LYS91       0.1728
     90  C         -2.3530   -1.0690    2.0930 C.2    91  LYS91       0.2616
     91  O         -1.5180   -1.1850    1.1740 O.2    91  LYS91      -0.2715
     92  CB        -4.6970   -1.6600    1.4040 C.3    91  LYS91       0.0311
     93  CG        -6.1400   -1.2020    1.2400 C.3    91  LYS91       0.0038
     94  CD        -6.9870   -2.1740    0.4390 C.3    91  LYS91       0.0206
     95  CE        -8.3910   -1.6280    0.2250 C.3    91  LYS91       0.1093
     96  NZ        -9.2390   -2.7930   -0.1670 N.3    91  LYS91      -0.1314
     97  N         -2.0630   -1.3320    3.3470 N.am   92  VAL92      -0.1977
     98  CA        -0.7100   -1.7360    3.7600 C.3    92  VAL92       0.1596
     99  C         -0.7210   -3.1610    4.3110 C.2    92  VAL92       0.2287
    100  O         -1.4640   -3.4010    5.2530 O.2    92  VAL92      -0.2864
    101  CB        -0.2000   -0.7870    4.8290 C.3    92  VAL92       0.0276
    102  CG1        1.2480   -1.1370    5.2910 C.3    92  VAL92       0.0022
    103  CG2       -0.1540    0.6610    4.3240 C.3    92  VAL92       0.0022
@<TRIPOS>BOND
     1    57    56   ar
     2    55    56    1
     3    55    52    1
     4    56    58   ar
     5    59    60    1
     6    53    52    1
     7    53    54    2
     8    52    51    1
     9    60    61    1
    10    60    63    1
    11    61    62    2
    12    63    64    1
    13    51    45   am
    14    46    45    2
    15    65    64   ar
    16    65    67   ar
    17    45    44    1
    18    42    40    1
    19    64    66   ar
    20    67    69   ar
    21    40    41    1
    22    40    37    1
    23    66    68   ar
    24    44    43    1
    25    44    47    1
    26    39    38    2
    27    43    38   am
    28    38    37    1
    29    49    47    1
    30    69    68   ar
    31    69    70    1
    32    37    36    1
    33    47    48    1
    34    36    34   am
    35    48    50    1
    36    71    72    1
    37    34    35    2
    38    34    33    1
    39    74    73    2
    40    33    32    1
    41    72    73    1
    42    72    75    1
    43    73    80   am
    44    31    29   am
    45    85    87    1
    46    85    84    1
    47    27    26    2
    48    28    29    1
    49    28    25    1
    50    80    81    1
    51     9    10    1
    52    75    76    1
    53    29    30    2
    54    81    84    1
    55    81    82    1
    56    96    95    1
    57    15    13    1
    58    84    86    1
    59    26    25    1
    60    25    24    1
    61    95    94    1
    62    94    93    1
    63    10    13    1
    64    10    11    1
    65    88    82   am
    66    88    89    1
    67    13    14    1
    68    76    77    1
    69    82    83    2
    70    12    11    2
    71    91    90    2
    72    93    92    1
    73     8     6    1
    74    92    89    1
    75    78    77   ar
    76    77    79   ar
    77    89    90    1
    78     7     6    1
    79    90    97   am
    80     6     5    1
    81    97    98    1
    82     5     2    1
    83    22    20    1
    84    98    99    1
    85    98   101    1
    86    19    18    2
    87    99   100    2
    88   103   101    1
    89    18    17    1
    90    20    17    1
    91    20    21    1
    92   101   102    1
    93     2     3    1
    94     2     1    1
    95    23    21    1
    96     3     4    2
    97    17    16    1
