@<TRIPOS>MOLECULE
tmp/1snkA00.pdb
 140 136 0 0 0
SMALL
GASTEIGER

@<TRIPOS>ATOM
      1  N         -6.1890   29.7700   81.7740 N.3    18  GLN18      -0.1245
      2  CA        -7.4920   29.1240   81.9290 C.3    18  GLN18       0.1566
      3  C         -7.4810   27.6360   81.6050 C.2    18  GLN18       0.2260
      4  O         -8.3330   26.8880   82.0840 O.2    18  GLN18      -0.2867
      5  CB        -8.5320   29.7640   81.0110 C.3    18  GLN18       0.0367
      6  CG        -8.7160   31.2270   81.3110 C.3    18  GLN18       0.0905
      7  CD        -9.6030   31.8060   80.2290 C.2    18  GLN18       0.2608
      8  OE1       -9.5450   32.9970   79.9380 O.2    18  GLN18      -0.2717
      9  NE2      -10.4330   30.9610   79.6270 N.am   18  GLN18      -0.0878
     10  N        -13.4650   27.7840   80.0800 N.3    22  GLY22      -0.1225
     11  CA       -13.8390   29.1690   79.8370 C.3    22  GLY22       0.1811
     12  C        -14.0980   29.8930   81.1470 C.2    22  GLY22       0.2280
     13  O        -15.1640   30.4730   81.3590 O.2    22  GLY22      -0.2866
     14  N        -12.5750   32.6070   82.3190 N.3    24  CYS24      -0.1221
     15  CA       -12.0030   33.9490   82.3090 C.3    24  CYS24       0.1808
     16  C        -12.6280   34.8310   83.3910 C.2    24  CYS24       0.2601
     17  O        -11.9420   35.6430   84.0170 O.2    24  CYS24      -0.2717
     18  CB       -12.2160   34.6040   80.9490 C.3    24  CYS24       0.0970
     19  SG       -13.9800   34.6650   80.5930 S.3    24  CYS24      -0.0800
     20  N        -13.9300   34.6640   83.6090 N.am   25  TRP25      -0.1976
     21  CA       -14.6320   35.4580   84.6040 C.3    25  TRP25       0.1640
     22  C        -14.1370   35.1510   86.0160 C.2    25  TRP25       0.2290
     23  O        -14.0370   36.0540   86.8430 O.2    25  TRP25      -0.2864
     24  CB       -16.1460   35.2300   84.5050 C.3    25  TRP25       0.0576
     25  CG       -16.4740   33.7900   84.7560 C.ar   25  TRP25       0.0006
     26  CD1      -16.4430   32.7720   83.8520 C.ar   25  TRP25       0.0946
     27  CD2      -16.8540   33.2040   86.0090 C.ar   25  TRP25       0.0152
     28  NE1      -16.7810   31.5900   84.4600 N.ar   25  TRP25      -0.2442
     29  CE2      -17.0390   31.8260   85.7850 C.ar   25  TRP25       0.0810
     30  CE3      -17.0550   33.7130   87.3000 C.ar   25  TRP25       0.0012
     31  CZ2      -17.4160   30.9450   86.8070 C.ar   25  TRP25       0.0191
     32  CZ3      -17.4270   32.8380   88.3130 C.ar   25  TRP25       0.0001
     33  CH2      -17.6040   31.4710   88.0600 C.ar   25  TRP25       0.0015
     34  N        -24.9100   30.7810   90.4360 N.3    58  GLU58      -0.1231
     35  CA       -25.5950   31.7050   89.5350 C.3    58  GLU58       0.1699
     36  C        -24.8990   31.6770   88.1680 C.2    58  GLU58       0.2592
     37  O        -25.4630   32.1170   87.1680 O.2    58  GLU58      -0.2718
     38  CB       -25.5670   33.1380   90.0890 C.3    58  GLU58       0.0402
     39  CG       -26.2690   33.2160   91.4390 C.3    58  GLU58       0.1161
     40  CD       -27.7110   32.7690   91.2870 C.2    58  GLU58       0.3649
     41  OE1      -28.4180   33.3260   90.4150 O.co2  58  GLU58      -0.2457
     42  OE2      -28.1420   31.8650   92.0410 O.co2  58  GLU58      -0.2457
     43  N        -23.6710   31.1640   88.1360 N.am   59  ASN59      -0.1960
     44  CA       -22.9050   31.0810   86.8960 C.3    59  ASN59       0.1819
     45  C        -22.9470   29.6980   86.2630 C.2    59  ASN59       0.2621
     46  O        -23.7890   28.8680   86.6120 O.2    59  ASN59      -0.2715
     47  CB       -21.4470   31.4920   87.1250 C.3    59  ASN59       0.1195
     48  CG       -21.3300   33.0030   87.1780 C.2    59  ASN59       0.2630
     49  OD1      -22.1610   33.7310   86.6220 O.2    59  ASN59      -0.2716
     50  ND2      -20.2790   33.4860   87.8340 N.am   59  ASN59      -0.0877
     51  N        -22.0290   29.4430   85.3370 N.am   60  ASP60      -0.1971
     52  CA       -22.0080   28.1670   84.6440 C.3    60  ASP60       0.1709
     53  C        -20.6050   27.5810   84.4810 C.2    60  ASP60       0.2293
     54  O        -20.2980   26.9480   83.4680 O.2    60  ASP60      -0.2864
     55  CB       -22.6840   28.3440   83.2820 C.3    60  ASP60       0.1436
     56  CG       -22.8250   27.0190   82.5680 C.2    60  ASP60       0.3671
     57  OD1      -23.1110   26.0050   83.2430 O.co2  60  ASP60      -0.2456
     58  OD2      -22.6660   26.9980   81.3270 O.co2  60  ASP60      -0.2456
     59  N        -17.1050   26.3870   83.6300 N.3    62  CYS62      -0.1221
     60  CA       -16.3570   26.4150   82.3790 C.3    62  CYS62       0.1808
     61  C        -17.1430   26.9290   81.1760 C.2    62  CYS62       0.2602
     62  O        -16.5620   27.2150   80.1260 O.2    62  CYS62      -0.2717
     63  CB       -15.8020   25.0260   82.0780 C.3    62  CYS62       0.0970
     64  SG       -14.5020   24.7080   83.2950 S.3    62  CYS62      -0.0800
     65  N        -18.4570   27.0510   81.3290 N.am   63  GLY63      -0.1942
     66  CA       -19.2760   27.5440   80.2380 C.3    63  GLY63       0.2014
     67  C        -19.3420   29.0560   80.2150 C.2    63  GLY63       0.2639
     68  O        -19.8600   29.6440   79.2630 O.2    63  GLY63      -0.2714
     69  N        -18.8180   29.6860   81.2640 N.am   64  GLY64      -0.1939
     70  CA       -18.8290   31.1350   81.3450 C.3    64  GLY64       0.2014
     71  C        -19.5900   31.6480   82.5500 C.2    64  GLY64       0.2639
     72  O        -20.3350   30.9000   83.1790 O.2    64  GLY64      -0.2714
     73  N        -19.4140   32.9250   82.8730 N.am   65  GLY65      -0.1939
     74  CA       -20.1010   33.4960   84.0180 C.3    65  GLY65       0.2014
     75  C        -19.9220   35.0000   84.1170 C.2    65  GLY65       0.2639
     76  O        -19.3720   35.6140   83.2070 O.2    65  GLY65      -0.2714
     77  N        -20.3830   35.6010   85.2120 N.am   66  TYR66      -0.1959
     78  CA       -20.2430   37.0440   85.3840 C.3    66  TYR66       0.1771
     79  C        -19.5220   37.3870   86.6860 C.2    66  TYR66       0.2619
     80  O        -19.6950   36.6980   87.6900 O.2    66  TYR66      -0.2715
     81  CB       -21.6200   37.7180   85.3380 C.3    66  TYR66       0.0574
     82  CG       -22.1910   37.5800   83.9420 C.ar   66  TYR66      -0.0198
     83  CD1      -21.6020   38.2350   82.8630 C.ar   66  TYR66      -0.0009
     84  CD2      -23.2940   36.7650   83.6940 C.ar   66  TYR66      -0.0009
     85  CE1      -22.0940   38.0810   81.5680 C.ar   66  TYR66       0.0417
     86  CE2      -23.7920   36.6020   82.4040 C.ar   66  TYR66       0.0417
     87  CZ       -23.1860   37.2630   81.3440 C.ar   66  TYR66       0.1957
     88  OH       -23.6660   37.1060   80.0640 O.3    66  TYR66      -0.2866
     89  N        -18.7110   38.4460   86.6590 N.am   67  MET67      -0.1977
     90  CA       -17.9540   38.8710   87.8340 C.3    67  MET67       0.1605
     91  C        -18.8100   39.3000   89.0270 C.2    67  MET67       0.2287
     92  O        -18.5150   38.9300   90.1580 O.2    67  MET67      -0.2864
     93  CB       -16.9960   40.0110   87.4770 C.3    67  MET67       0.0413
     94  CG       -15.8930   39.4990   86.5640 C.3    67  MET67       0.0598
     95  SD       -16.4330   39.5740   84.8500 S.3    67  MET67      -0.1393
     96  CE       -15.6000   41.0550   84.2980 C.3    67  MET67       0.0692
     97  N        -15.3490   43.7150   81.0920 N.3   133  ALA133     -0.1245
     98  CA       -15.7540   42.7550   80.0700 C.3   133  ALA133      0.1562
     99  C        -15.5430   43.3890   78.6990 C.2   133  ALA133      0.2260
    100  O        -15.7450   44.5990   78.5210 O.2   133  ALA133     -0.2867
    101  CB       -17.2180   42.3670   80.2450 C.3   133  ALA133      0.0290
    102  N        -20.1260   41.4500   74.4520 N.3   159  LEU159     -0.1231
    103  CA       -19.2660   41.1180   75.5840 C.3   159  LEU159      0.1693
    104  C        -19.1940   39.5990   75.6780 C.2   159  LEU159      0.2592
    105  O        -20.2140   38.9430   75.8720 O.2   159  LEU159     -0.2718
    106  CB       -19.8480   41.6840   76.8840 C.3   159  LEU159      0.0284
    107  CG       -20.2130   43.1630   76.7050 C.3   159  LEU159      0.0019
    108  CD1      -20.7620   43.6890   78.0160 C.3   159  LEU159      0.0001
    109  CD2      -18.9960   43.9750   76.2790 C.3   159  LEU159      0.0001
    110  N        -17.9910   39.0440   75.5390 N.am  160  ASN160     -0.1960
    111  CA       -17.8170   37.5960   75.5940 C.3   160  ASN160      0.1819
    112  C        -16.5520   37.1620   76.3370 C.2   160  ASN160      0.2621
    113  O        -16.2870   35.9770   76.4850 O.2   160  ASN160     -0.2715
    114  CB       -17.8040   37.0280   74.1700 C.3   160  ASN160      0.1195
    115  CG       -16.7890   37.7920   73.3240 C.2   160  ASN160      0.2630
    116  OD1      -15.6000   37.8320   73.6440 O.2   160  ASN160     -0.2716
    117  ND2      -17.2610   38.4060   72.2360 N.am  160  ASN160     -0.0877
    118  N        -15.7730   38.1230   76.8150 N.am  161  HIS161     -0.1959
    119  CA       -14.5430   37.7870   77.5130 C.3   161  HIS161      0.1787
    120  C        -14.3140   38.6980   78.7150 C.2   161  HIS161      0.2620
    121  O        -14.5700   39.8980   78.6630 O.2   161  HIS161     -0.2715
    122  CB       -13.3670   37.8650   76.5360 C.3   161  HIS161      0.0785
    123  CG       -12.1820   37.1760   77.1320 C.ar  161  HIS161      0.0821
    124  ND1      -12.2480   35.9010   77.6470 N.ar  161  HIS161     -0.2267
    125  CD2      -10.9000   37.5790   77.2930 C.ar  161  HIS161      0.1154
    126  CE1      -11.0600   35.5490   78.1020 C.ar  161  HIS161      0.1986
    127  NE2      -10.2230   36.5490   77.8990 N.ar  161  HIS161     -0.2212
    128  N        -13.8260   38.1100   79.8010 N.am  162  ALA162     -0.1977
    129  CA       -13.5760   38.8540   81.0300 C.3   162  ALA162      0.1597
    130  C        -12.0880   39.0230   81.2790 C.2   162  ALA162      0.2287
    131  O        -11.3280   38.0630   81.1810 O.2   162  ALA162     -0.2864
    132  CB       -14.2220   38.1360   82.2120 C.3   162  ALA162      0.0319
    133  N        -19.2780   46.8030   81.0620 N.3   208  LEU208     -0.1245
    134  CA       -19.5920   45.8740   82.1450 C.3   208  LEU208      0.1561
    135  C        -18.4210   45.7440   83.1290 C.2   208  LEU208      0.2260
    136  O        -17.9140   44.6510   83.3720 O.2   208  LEU208     -0.2867
    137  CB       -19.9380   44.5090   81.5410 C.3   208  LEU208      0.0270
    138  CG       -20.8620   43.6960   82.4540 C.3   208  LEU208      0.0019
    139  CD1      -22.1710   44.4420   82.7420 C.3   208  LEU208      0.0001
    140  CD2      -21.1560   42.3760   81.7450 C.3   208  LEU208      0.0001
@<TRIPOS>BOND
     1   117   115   am
     2   115   116    2
     3   115   114    1
     4   114   111    1
     5   102   103    1
     6   110   111    1
     7   110   104   am
     8   103   104    1
     9   103   106    1
    10   111   112    1
    11   104   105    2
    12   109   107    1
    13   112   113    2
    14   112   118   am
    15   122   123    1
    16   122   119    1
    17   107   106    1
    18   107   108    1
    19   118   119    1
    20   123   125   ar
    21   123   124   ar
    22   125   127   ar
    23   119   120    1
    24   124   126   ar
    25   127   126   ar
    26   100    99    2
    27   121   120    2
    28    99    98    1
    29   120   128   am
    30    68    67    2
    31     9     7   am
    32   128   129    1
    33    11    10    1
    34    11    12    1
    35     8     7    2
    36    88    87    1
    37    98   101    1
    38    98    97    1
    39    62    61    2
    40    67    66    1
    41    67    69   am
    42     7     6    1
    43    66    65    1
    44    19    18    1
    45    18    15    1
    46     5     6    1
    47     5     2    1
    48   129   130    1
    49   129   132    1
    50   133   134    1
    51    12    13    2
    52    61    65   am
    53    61    60    1
    54   131   130    2
    55    69    70    1
    56    58    56   ar
    57    87    85   ar
    58    87    86   ar
    59    70    71    1
    60   137   134    1
    61   137   138    1
    62    85    83   ar
    63     3     2    1
    64     3     4    2
    65   140   138    1
    66     1     2    1
    67    63    60    1
    68    63    64    1
    69   134   135    1
    70    15    14    1
    71    15    16    1
    72    60    59    1
    73    86    84   ar
    74   138   139    1
    75    71    73   am
    76    71    72    2
    77    56    57   ar
    78    56    55    1
    79    83    82   ar
    80    73    74    1
    81   135   136    2
    82    76    75    2
    83    55    52    1
    84    16    20   am
    85    16    17    2
    86    54    53    2
    87    20    21    1
    88    84    82   ar
    89    26    28   ar
    90    26    25   ar
    91    82    81    1
    92    74    75    1
    93    75    77   am
    94    96    95    1
    95    28    29   ar
    96    53    52    1
    97    24    21    1
    98    24    25    1
    99    21    22    1
   100    52    51    1
   101    25    27   ar
   102    95    94    1
   103    77    78    1
   104    51    45   am
   105    81    78    1
   106    78    79    1
   107    29    27   ar
   108    29    31   ar
   109    27    30   ar
   110    22    23    2
   111    45    46    2
   112    45    44    1
   113    94    93    1
   114    49    48    2
   115    89    79   am
   116    89    90    1
   117    79    80    2
   118    31    33   ar
   119    44    47    1
   120    44    43    1
   121    47    48    1
   122    37    36    2
   123    48    50   am
   124    30    32   ar
   125    93    90    1
   126    90    91    1
   127    33    32   ar
   128    43    36   am
   129    36    35    1
   130    91    92    2
   131    35    38    1
   132    35    34    1
   133    38    39    1
   134    41    40   ar
   135    40    39    1
   136    40    42   ar
