@<TRIPOS>MOLECULE
tmp/1snuA00.pdb
 159 150 0 0 0
SMALL
GASTEIGER

@<TRIPOS>ATOM
      1  N         23.6210  -16.6530    4.4060 N.3    13  ILE13      -0.1231
      2  CA        24.4920  -15.7080    5.0930 C.3    13  ILE13       0.1692
      3  C         23.9700  -15.0830    6.3790 C.2    13  ILE13       0.2593
      4  O         24.4250  -14.0160    6.7720 O.2    13  ILE13      -0.2718
      5  CB        24.9260  -14.5830    4.0790 C.3    13  ILE13       0.0266
      6  CG1       23.7200  -13.6830    3.6930 C.3    13  ILE13       0.0019
      7  CG2       25.5280  -15.2190    2.8400 C.3    13  ILE13       0.0020
      8  CD1       24.0800  -12.5450    2.7610 C.3    13  ILE13       0.0001
      9  N         23.0360  -15.7660    7.0400 N.am   14  GLY14      -0.1942
     10  CA        22.4920  -15.2510    8.2840 C.3    14  GLY14       0.2014
     11  C         21.0730  -15.6940    8.5680 C.2    14  GLY14       0.2639
     12  O         20.2020  -15.5010    7.7420 O.2    14  GLY14      -0.2714
     13  N         20.8450  -16.2680    9.7510 N.am   15  SER15      -0.1949
     14  CA        19.5200  -16.7480   10.1420 C.3    15  SER15       0.1924
     15  C         18.8850  -16.1270   11.3900 C.2    15  SER15       0.2314
     16  O         19.2500  -15.0470   11.8350 O.2    15  SER15      -0.2863
     17  CB        19.5330  -18.2900   10.3140 C.3    15  SER15       0.2116
     18  OG        20.7570  -18.8590    9.8860 O.3    15  SER15      -0.2180
     19  N         18.8490  -15.6150    5.3120 N.3    21  VAL21      -0.1245
     20  CA        19.1870  -14.6310    4.2870 C.3    21  VAL21       0.1561
     21  C         20.1620  -15.3270    3.3590 C.2    21  VAL21       0.2260
     22  O         21.1220  -15.9320    3.8070 O.2    21  VAL21      -0.2867
     23  CB        19.8450  -13.2920    4.7880 C.3    21  VAL21       0.0252
     24  CG1       20.1640  -12.3860    3.5990 C.3    21  VAL21       0.0019
     25  CG2       18.9080  -12.5800    5.7470 C.3    21  VAL21       0.0019
     26  N         20.7010   -9.8790   -2.1000 N.3    33  ALA33      -0.1245
     27  CA        20.6630  -10.5020   -0.7890 C.3    33  ALA33       0.1562
     28  C         19.2020  -10.7950   -0.5990 C.2    33  ALA33       0.2260
     29  O         18.3860   -9.8900   -0.5930 O.2    33  ALA33      -0.2867
     30  CB        21.1270   -9.5670    0.2440 C.3    33  ALA33       0.0290
     31  N         16.1480  -12.2630    1.6600 N.3    35  LYS35      -0.1245
     32  CA        15.7030  -12.6430    2.9890 C.3    35  LYS35       0.1561
     33  C         14.3870  -13.3830    2.9120 C.2    35  LYS35       0.2260
     34  O         13.3830  -12.8130    2.5550 O.2    35  LYS35      -0.2867
     35  CB        15.5420  -11.4170    3.9290 C.3    35  LYS35       0.0271
     36  CG        14.8230  -11.7970    5.2320 C.3    35  LYS35       0.0035
     37  CD        15.3860  -11.1120    6.4600 C.3    35  LYS35       0.0206
     38  CE        15.1010  -11.9340    7.7300 C.3    35  LYS35       0.1093
     39  NZ        15.4770  -11.2040    8.9920 N.3    35  LYS35      -0.1314
     40  N         19.7430    0.5350    2.6800 N.3    63  VAL63      -0.1245
     41  CA        19.9490   -0.5920    1.7640 C.3    63  VAL63       0.1561
     42  C         18.7650   -0.7030    0.8100 C.2    63  VAL63       0.2260
     43  O         17.6190   -0.6670    1.2160 O.2    63  VAL63      -0.2867
     44  CB        20.0970   -1.9720    2.5180 C.3    63  VAL63       0.0252
     45  CG1       20.2940   -3.1270    1.5130 C.3    63  VAL63       0.0019
     46  CG2       21.2650   -1.9230    3.4690 C.3    63  VAL63       0.0019
     47  N         17.0650   -7.8300   -1.6120 N.3    79  PHE79      -0.1227
     48  CA        17.7840   -6.5780   -1.3760 C.3    79  PHE79       0.1736
     49  C         18.9890   -6.5520   -2.3030 C.2    79  PHE79       0.2595
     50  O         19.3010   -7.5410   -2.9440 O.2    79  PHE79      -0.2718
     51  CB        18.3200   -6.4710    0.0800 C.3    79  PHE79       0.0547
     52  CG        17.2540   -6.4570    1.1380 C.ar   79  PHE79      -0.0202
     53  CD1       16.7900   -7.6470    1.6890 C.ar   79  PHE79      -0.0042
     54  CD2       16.7320   -5.2490    1.6130 C.ar   79  PHE79      -0.0042
     55  CE1       15.8190   -7.6360    2.7060 C.ar   79  PHE79      -0.0003
     56  CE2       15.7610   -5.2350    2.6260 C.ar   79  PHE79      -0.0003
     57  CZ        15.3070   -6.4250    3.1710 C.ar   79  PHE79      -0.0000
     58  N         19.6440   -5.4040   -2.3840 N.am   80  GLU80      -0.1965
     59  CA        20.8660   -5.2760   -3.1630 C.3    80  GLU80       0.1733
     60  C         21.9370   -5.8810   -2.2340 C.2    80  GLU80       0.2616
     61  O         21.9120   -5.6470   -1.0210 O.2    80  GLU80      -0.2715
     62  CB        21.2080   -3.7650   -3.3950 C.3    80  GLU80       0.0429
     63  CG        21.3090   -2.9810   -2.0750 C.3    80  GLU80       0.1163
     64  CD        22.1710   -1.7330   -2.1510 C.2    80  GLU80       0.3649
     65  OE1       23.2790   -1.7950   -2.7310 O.co2  80  GLU80      -0.2457
     66  OE2       21.7460   -0.6920   -1.6080 O.co2  80  GLU80      -0.2457
     67  N         22.8800   -6.6390   -2.7740 N.am   81  PHE81      -0.1960
     68  CA        23.9200   -7.2150   -1.9260 C.3    81  PHE81       0.1771
     69  C         24.9200   -6.1580   -1.4590 C.2    81  PHE81       0.2619
     70  O         25.4430   -5.3780   -2.2490 O.2    81  PHE81      -0.2715
     71  CB        24.6980   -8.3180   -2.6670 C.3    81  PHE81       0.0574
     72  CG        25.6650   -9.0990   -1.7830 C.ar   81  PHE81      -0.0200
     73  CD1       25.1930   -9.9960   -0.8190 C.ar   81  PHE81      -0.0042
     74  CD2       27.0450   -9.0040   -1.9770 C.ar   81  PHE81      -0.0042
     75  CE1       26.0810  -10.7920   -0.0810 C.ar   81  PHE81      -0.0003
     76  CE2       27.9330   -9.7940   -1.2450 C.ar   81  PHE81      -0.0003
     77  CZ        27.4500  -10.6880   -0.3020 C.ar   81  PHE81      -0.0000
     78  N         25.1720   -6.1360   -0.1600 N.am   82  MET82      -0.1963
     79  CA        26.1420   -5.2120    0.3910 C.3    82  MET82       0.1736
     80  C         27.4410   -6.0200    0.4560 C.2    82  MET82       0.2616
     81  O         27.6010   -6.9370    1.2670 O.2    82  MET82      -0.2715
     82  CB        25.6920   -4.7200    1.7780 C.3    82  MET82       0.0427
     83  CG        24.4530   -3.8390    1.7180 C.3    82  MET82       0.0599
     84  SD        24.5590   -2.4570    0.4990 S.3    82  MET82      -0.1393
     85  CE        25.8310   -1.4210    1.2280 C.3    82  MET82       0.0692
     86  N         28.3590   -5.6670   -0.4350 N.am   83  GLU83      -0.1977
     87  CA        29.6300   -6.3500   -0.5570 C.3    83  GLU83       0.1602
     88  C         30.5750   -6.5400    0.6350 C.2    83  GLU83       0.2287
     89  O         31.6140   -7.1650    0.4780 O.2    83  GLU83      -0.2864
     90  CB        30.3680   -5.7400   -1.6420 C.3    83  GLU83       0.0415
     91  CG        30.1820   -6.4700   -2.9590 C.3    83  GLU83       0.1163
     92  CD        30.5940   -7.9310   -2.8760 C.2    83  GLU83       0.3649
     93  OE1       31.7030   -8.2180   -2.3620 O.co2  83  GLU83      -0.2457
     94  OE2       29.8110   -8.7850   -3.3380 O.co2  83  GLU83      -0.2457
     95  N         29.4750   -7.4220    4.2210 N.3    85  GLY85      -0.1210
     96  CA        28.8940   -7.9110    5.4560 C.3    85  GLY85       0.1956
     97  C         28.3880   -6.7980    6.3430 C.2    85  GLY85       0.2612
     98  O         28.4330   -5.6220    5.9610 O.2    85  GLY85      -0.2717
     99  N         27.8990   -7.1600    7.5250 N.am   86  CYS86      -0.1970
    100  CA        27.3980   -6.1500    8.4360 C.3    86  CYS86       0.1712
    101  C         28.5590   -5.3660    9.0090 C.2    86  CYS86       0.2296
    102  O         29.7110   -5.8180    8.9780 O.2    86  CYS86      -0.2864
    103  CB        26.5820   -6.7650    9.5500 C.3    86  CYS86       0.0983
    104  SG        27.4890   -7.8310   10.6180 S.3    86  CYS86      -0.0798
    105  N         29.2870   -4.4070   12.1900 N.3    88  SER88      -0.1202
    106  CA        29.8850   -5.0310   13.3560 C.3    88  SER88       0.2020
    107  C         30.9030   -6.0600   12.9240 C.2    88  SER88       0.2618
    108  O         31.9840   -6.1820   13.4950 O.2    88  SER88      -0.2717
    109  CB        28.8330   -5.6900   14.1740 C.3    88  SER88       0.2103
    110  OG        29.1180   -7.0670   14.3120 O.3    88  SER88      -0.2182
    111  N         30.5420   -6.7910   11.8900 N.am   89  ASP89      -0.1973
    112  CA        31.4010   -7.8230   11.3610 C.3    89  ASP89       0.1709
    113  C         32.6270   -7.2450   10.6570 C.2    89  ASP89       0.2293
    114  O         33.6640   -7.8360   10.6320 O.2    89  ASP89      -0.2864
    115  CB        30.5910   -8.6900   10.4060 C.3    89  ASP89       0.1436
    116  CG        31.2210  -10.0220   10.1850 C.2    89  ASP89       0.3671
    117  OD1       32.1160  -10.3600   10.9980 O.co2  89  ASP89      -0.2456
    118  OD2       30.8220  -10.7190    9.2200 O.co2  89  ASP89      -0.2456
    119  N         25.4380   -4.3600   14.1840 N.3   130  ARG130     -0.1231
    120  CA        25.0560   -5.6620   13.6320 C.3   130  ARG130      0.1694
    121  C         23.9920   -5.5260   12.5200 C.2   130  ARG130      0.2592
    122  O         23.8600   -6.3980   11.6600 O.2   130  ARG130     -0.2718
    123  CB        24.5090   -6.5480   14.7550 C.3   130  ARG130      0.0321
    124  CG        22.9920   -6.4480   14.9160 C.3   130  ARG130      0.0489
    125  CD        22.5120   -7.3250   16.0420 C.3   130  ARG130      0.2205
    126  NE        22.6820   -6.6850   17.3430 N.pl3 130  ARG130     -0.0865
    127  CZ        21.7600   -5.9230   17.9200 C.cat 130  ARG130      0.5346
    128  NH1       20.5920   -5.7100   17.3100 N.pl3 130  ARG130      0.1354
    129  NH2       22.0050   -5.3690   19.1030 N.pl3 130  ARG130      0.1354
    130  N         23.2420   -4.4250   12.5470 N.am  131  ASN131     -0.1974
    131  CA        22.2110   -4.1680   11.5580 C.3   131  ASN131      0.1688
    132  C         22.6460   -3.1140   10.5430 C.2   131  ASN131      0.2292
    133  O         21.8410   -2.5510    9.8370 O.2   131  ASN131     -0.2864
    134  CB        20.9480   -3.7490   12.2430 C.3   131  ASN131      0.1181
    135  CG        20.4060   -4.8300   13.1550 C.2   131  ASN131      0.2629
    136  OD1       20.0600   -5.9190   12.7010 O.2   131  ASN131     -0.2716
    137  ND2       20.3320   -4.5340   14.4510 N.am  131  ASN131     -0.0877
    138  N         25.2510   -2.2150    7.2340 N.3   133  LEU133     -0.1245
    139  CA        25.9990   -2.9160    6.2060 C.3   133  LEU133      0.1561
    140  C         27.0600   -2.0620    5.5320 C.2   133  LEU133      0.2260
    141  O         26.8710   -0.8850    5.2770 O.2   133  LEU133     -0.2867
    142  CB        25.0210   -3.4970    5.1710 C.3   133  LEU133      0.0270
    143  CG        24.0010   -4.5390    5.7870 C.3   133  LEU133      0.0019
    144  CD1       22.8210   -4.7960    4.8360 C.3   133  LEU133      0.0001
    145  CD2       24.7440   -5.8340    6.0950 C.3   133  LEU133      0.0001
    146  N         20.0790   -1.2070    7.5180 N.3   143  SER143     -0.1202
    147  CA        19.0470   -2.1210    7.0280 C.3   143  SER143      0.2020
    148  C         18.1880   -2.6080    8.1740 C.2   143  SER143      0.2618
    149  O         17.9600   -1.8830    9.1460 O.2   143  SER143     -0.2717
    150  CB        19.6830   -3.3460    6.3270 C.3   143  SER143      0.2103
    151  OG        20.0080   -4.3650    7.2620 O.3   143  SER143     -0.2182
    152  N         17.7260   -3.8510    8.0430 N.am  144  ASP144     -0.1973
    153  CA        16.8930   -4.5150    9.0440 C.3   144  ASP144      0.1709
    154  C         15.8550   -3.5800    9.6590 C.2   144  ASP144      0.2293
    155  O         15.3280   -3.8370   10.7490 O.2   144  ASP144     -0.2864
    156  CB        17.7900   -5.1240   10.1690 C.3   144  ASP144      0.1436
    157  CG        17.9690   -6.6240   10.0270 C.2   144  ASP144      0.3671
    158  OD1       16.9460   -7.3380    9.9990 O.co2 144  ASP144     -0.2456
    159  OD2       19.1280   -7.0880    9.9460 O.co2 144  ASP144     -0.2456
@<TRIPOS>BOND
     1    62    59    1
     2    62    63    1
     3    94    92   ar
     4    59    58    1
     5    59    60    1
     6    91    92    1
     7    91    90    1
     8    50    49    2
     9    92    93   ar
    10    67    60   am
    11    67    68    1
    12    65    64   ar
    13    71    68    1
    14    71    72    1
    15    58    49   am
    16    49    48    1
    17    70    69    2
    18    60    61    2
    19    64    63    1
    20    64    66   ar
    21    26    27    1
    22    74    72   ar
    23    74    76   ar
    24    68    69    1
    25    72    73   ar
    26    90    87    1
    27    47    48    1
    28    69    78   am
    29    48    51    1
    30    76    77   ar
    31    73    75   ar
    32    27    28    1
    33    27    30    1
    34    28    29    2
    35    87    86    1
    36    87    88    1
    37    86    80   am
    38    77    75   ar
    39    78    79    1
    40    51    52    1
    41    79    80    1
    42    79    82    1
    43    80    81    2
    44    89    88    2
    45    84    85    1
    46    84    83    1
    47    42    43    2
    48    42    41    1
    49    52    54   ar
    50    52    53   ar
    51    45    44    1
    52    54    56   ar
    53    31    32    1
    54    53    55   ar
    55    83    82    1
    56    41    44    1
    57    41    40    1
    58    44    46    1
    59    34    33    2
    60    56    57   ar
    61    55    57   ar
    62     8     6    1
    63     7     5    1
    64    33    32    1
    65    32    35    1
    66    21    22    2
    67    21    20    1
    68    24    23    1
    69     6     5    1
    70    35    36    1
    71     5     2    1
    72    95    96    1
    73    20    23    1
    74    20    19    1
    75     1     2    1
    76    23    25    1
    77   144   143    1
    78     2     3    1
    79   142   143    1
    80   142   139    1
    81    36    37    1
    82   141   140    2
    83    96    97    1
    84   140   139    1
    85   143   145    1
    86    98    97    2
    87   139   138    1
    88   150   147    1
    89   150   151    1
    90    97    99   am
    91     3     4    2
    92     3     9   am
    93    37    38    1
    94   147   146    1
    95   147   148    1
    96     9    10    1
    97    99   100    1
    98    38    39    1
    99    12    11    2
   100   152   148   am
   101   152   153    1
   102   148   149    2
   103    10    11    1
   104   100   101    1
   105   100   103    1
   106    11    13   am
   107   102   101    2
   108   153   154    1
   109   153   156    1
   110   118   116   ar
   111   103   104    1
   112   154   155    2
   113    13    14    1
   114   133   132    2
   115    18    17    1
   116   159   157   ar
   117   158   157   ar
   118   157   156    1
   119    14    17    1
   120    14    15    1
   121   116   115    1
   122   116   117   ar
   123   115   112    1
   124   132   131    1
   125   114   113    2
   126   113   112    1
   127   112   111    1
   128    15    16    2
   129   131   134    1
   130   131   130    1
   131   122   121    2
   132   111   107   am
   133   105   106    1
   134   134   135    1
   135   121   130   am
   136   121   120    1
   137   136   135    2
   138   107   106    1
   139   107   108    2
   140   135   137   am
   141   106   109    1
   142   120   119    1
   143   120   123    1
   144   109   110    1
   145   123   124    1
   146   124   125    1
   147   125   126    1
   148   128   127    1
   149   126   127    2
   150   127   129    1
