@<TRIPOS>MOLECULE
tmp/1so0C00.pdb
 144 139 0 0 0
SMALL
GASTEIGER

@<TRIPOS>ATOM
      1  N         38.4670   12.7750   38.9500 N.3    72  PRO72      -0.2102
      2  CA        39.1780   11.9860   39.9140 C.3    72  PRO72       0.1504
      3  C         38.6710   10.5850   40.1260 C.2    72  PRO72       0.2575
      4  O         38.2850   10.2610   41.2310 O.2    72  PRO72      -0.2718
      5  CB        39.0140   12.7380   41.2340 C.3    72  PRO72       0.0282
      6  CG        37.6940   13.4980   41.0950 C.3    72  PRO72       0.0208
      7  CD        37.3210   13.4470   39.6090 C.3    72  PRO72       0.0893
      8  N         38.7060    9.7210   39.1210 N.am   73  TYR73      -0.1977
      9  CA        38.3590    8.3280   39.3630 C.3    73  TYR73       0.1639
     10  C         36.9630    8.0140   39.8820 C.2    73  TYR73       0.2290
     11  O         36.8030    7.0450   40.5990 O.2    73  TYR73      -0.2864
     12  CB        39.3870    7.7560   40.4020 C.3    73  TYR73       0.0560
     13  CG        40.8370    7.9450   39.9270 C.ar   73  TYR73      -0.0198
     14  CD1       41.5950    9.0450   40.3220 C.ar   73  TYR73      -0.0009
     15  CD2       41.4060    7.0480   39.0190 C.ar   73  TYR73      -0.0009
     16  CE1       42.8870    9.2580   39.8330 C.ar   73  TYR73       0.0417
     17  CE2       42.6930    7.2360   38.5260 C.ar   73  TYR73       0.0417
     18  CZ        43.4280    8.3530   38.9220 C.ar   73  TYR73       0.1957
     19  OH        44.6830    8.5320   38.4250 O.3    73  TYR73      -0.2866
     20  N         46.3900    3.5650   44.6460 N.3    83  ASN83      -0.1225
     21  CA        47.1270    4.5130   45.4260 C.3    83  ASN83       0.1785
     22  C         48.5390    4.8110   44.9110 C.2    83  ASN83       0.2597
     23  O         48.8420    4.5730   43.7590 O.2    83  ASN83      -0.2718
     24  CB        47.0660    4.1820   46.9320 C.3    83  ASN83       0.1169
     25  CG        46.9740    5.4570   47.7180 C.2    83  ASN83       0.2627
     26  OD1       48.0100    6.0820   47.9880 O.2    83  ASN83      -0.2716
     27  ND2       45.7370    5.8790   47.9970 N.am   83  ASN83      -0.0877
     28  N         49.4110    5.3130   45.7840 N.am   84  ARG84      -0.1979
     29  CA        50.7610    5.7150   45.4050 C.3    84  ARG84       0.1597
     30  C         51.9240    4.7760   45.5530 C.2    84  ARG84       0.2287
     31  O         51.9810    3.9450   46.4450 O.2    84  ARG84      -0.2864
     32  CB        51.1220    6.9960   46.1230 C.3    84  ARG84       0.0334
     33  CG        50.0560    8.0720   45.8860 C.3    84  ARG84       0.0492
     34  CD        50.3680    9.3680   46.6660 C.3    84  ARG84       0.2205
     35  NE        49.5710   10.4950   46.2180 N.pl3  84  ARG84      -0.0865
     36  CZ        48.2570   10.6140   46.4590 C.cat  84  ARG84       0.5346
     37  NH1       47.6240    9.6860   47.1380 N.pl3  84  ARG84       0.1354
     38  NH2       47.5670   11.6680   46.0310 N.pl3  84  ARG84       0.1354
     39  N         51.7520   11.7500   39.0630 N.3   103  LYS103     -0.1245
     40  CA        51.4830   12.5190   40.2540 C.3   103  LYS103      0.1561
     41  C         52.7580   12.8430   40.9940 C.2   103  LYS103      0.2260
     42  O         52.9140   12.4050   42.1260 O.2   103  LYS103     -0.2867
     43  CB        50.5230   11.8250   41.1730 C.3   103  LYS103      0.0271
     44  CG        49.1780   12.5100   41.2410 C.3   103  LYS103      0.0035
     45  CD        49.0570   13.5080   42.3770 C.3   103  LYS103      0.0206
     46  CE        47.7230   14.2730   42.3720 C.3   103  LYS103      0.1093
     47  NZ        47.0800   14.3530   43.7010 N.3   103  LYS103     -0.1314
     48  N         50.5690    7.2410   40.7130 N.3   108  LEU108     -0.1231
     49  CA        49.2750    7.0550   41.3300 C.3   108  LEU108      0.1693
     50  C         48.2210    6.2620   40.5300 C.2   108  LEU108      0.2592
     51  O         48.0420    6.4090   39.3420 O.2   108  LEU108     -0.2718
     52  CB        48.6880    8.4520   41.5780 C.3   108  LEU108      0.0284
     53  CG        47.2540    8.4330   42.0680 C.3   108  LEU108      0.0019
     54  CD1       47.1900    8.0060   43.5370 C.3   108  LEU108      0.0001
     55  CD2       46.7040    9.8470   41.9250 C.3   108  LEU108      0.0001
     56  N         47.5010    5.4150   41.2440 N.am  109  HIS109     -0.1976
     57  CA        46.4390    4.6150   40.7060 C.3   109  HIS109      0.1656
     58  C         46.6610    3.9820   39.3480 C.2   109  HIS109      0.2291
     59  O         45.8630    4.1260   38.4120 O.2   109  HIS109     -0.2864
     60  CB        45.1330    5.4260   40.6610 C.3   109  HIS109      0.0771
     61  CG        44.6500    5.8940   41.9920 C.ar  109  HIS109      0.0820
     62  ND1       44.7970    5.1280   43.1340 N.ar  109  HIS109     -0.2267
     63  CD2       43.9670    7.0310   42.3140 C.ar  109  HIS109      0.1154
     64  CE1       44.2240    5.7960   44.1230 C.ar  109  HIS109      0.1986
     65  NE2       43.7260    6.9380   43.6580 N.ar  109  HIS109     -0.2212
     66  N         36.8100    2.9070   43.5500 N.3   178  HIS178     -0.1241
     67  CA        36.8460    4.2980   43.9740 C.3   178  HIS178      0.1621
     68  C         35.5240    5.0140   43.9820 C.2   178  HIS178      0.2264
     69  O         35.4760    6.1500   43.5870 O.2   178  HIS178     -0.2867
     70  CB        37.8390    5.1260   43.1050 C.3   178  HIS178      0.0745
     71  CG        38.5400    6.3000   43.7190 C.ar  178  HIS178      0.0817
     72  ND1       37.8560    7.4650   44.1200 N.ar  178  HIS178     -0.2268
     73  CD2       39.8720    6.4970   43.9530 C.ar  178  HIS178      0.1154
     74  CE1       38.7710    8.3140   44.5900 C.ar  178  HIS178      0.1986
     75  NE2       39.9850    7.7640   44.5030 N.ar  178  HIS178     -0.2212
     76  N         32.6260    7.2490   45.2460 N.3   180  TYR180     -0.1241
     77  CA        32.5080    8.3190   46.2140 C.3   180  TYR180      0.1605
     78  C         31.0990    8.2250   46.7540 C.2   180  TYR180      0.2264
     79  O         30.1640    8.2170   45.9570 O.2   180  TYR180     -0.2867
     80  CB        32.6480    9.6830   45.5640 C.3   180  TYR180      0.0534
     81  CG        34.0300   10.0480   45.1070 C.ar  180  TYR180     -0.0201
     82  CD1       34.5760    9.3910   44.0010 C.ar  180  TYR180     -0.0009
     83  CD2       34.7510   11.0860   45.6950 C.ar  180  TYR180     -0.0009
     84  CE1       35.8410    9.7090   43.4970 C.ar  180  TYR180      0.0417
     85  CE2       36.0120   11.4240   45.2000 C.ar  180  TYR180      0.0417
     86  CZ        36.5530   10.7330   44.1120 C.ar  180  TYR180      0.1957
     87  OH        37.7990   11.0390   43.6480 O.3   180  TYR180     -0.2866
     88  N         52.5760   12.3240   50.3270 N.3   210  LEU210     -0.1245
     89  CA        51.4820   11.4160   50.6230 C.3   210  LEU210      0.1561
     90  C         51.8990    9.9620   50.6060 C.2   210  LEU210      0.2260
     91  O         51.1110    9.0710   50.3130 O.2   210  LEU210     -0.2867
     92  CB        50.3030   11.6910   49.6770 C.3   210  LEU210      0.0270
     93  CG        49.6780   13.0680   49.9000 C.3   210  LEU210      0.0019
     94  CD1       48.2150   13.0370   49.4770 C.3   210  LEU210      0.0001
     95  CD2       49.7400   13.3670   51.3810 C.3   210  LEU210      0.0001
     96  N         42.7380   11.1470   54.3240 N.3   245  ASP245     -0.1239
     97  CA        43.3190   10.5600   53.1400 C.3   245  ASP245      0.1674
     98  C         44.4110    9.6510   53.6050 C.2   245  ASP245      0.2266
     99  O         45.5790    9.8950   53.3800 O.2   245  ASP245     -0.2867
    100  CB        43.8580   11.5660   52.1350 C.3   245  ASP245      0.1410
    101  CG        44.0040   10.9220   50.7820 C.2   245  ASP245      0.3668
    102  OD1       43.8580    9.7200   50.5640 O.co2 245  ASP245     -0.2456
    103  OD2       44.3160   11.7970   49.8620 O.co2 245  ASP245     -0.2456
    104  N         41.4000    2.7160   52.4480 N.3   281  GLN281     -0.1245
    105  CA        41.7840    4.0970   52.3250 C.3   281  GLN281      0.1566
    106  C         40.5300    4.8700   52.6220 C.2   281  GLN281      0.2260
    107  O         39.4650    4.6170   52.1060 O.2   281  GLN281     -0.2867
    108  CB        42.3020    4.4460   50.9160 C.3   281  GLN281      0.0367
    109  CG        42.9130    5.8540   50.8450 C.3   281  GLN281      0.0905
    110  CD        44.3470    5.9610   51.3440 C.2   281  GLN281      0.2608
    111  OE1       44.9820    5.0130   51.8070 O.2   281  GLN281     -0.2717
    112  NE2       44.8790    7.1530   51.2600 N.am  281  GLN281     -0.0878
    113  N         39.1460    8.4910   52.3710 N.3   283  TYR283     -0.1241
    114  CA        39.4250    9.7680   51.7510 C.3   283  TYR283      0.1605
    115  C         38.1720   10.6130   51.6620 C.2   283  TYR283      0.2264
    116  O         37.1460   10.2250   51.1040 O.2   283  TYR283     -0.2867
    117  CB        40.0100    9.4470   50.3740 C.3   283  TYR283      0.0534
    118  CG        39.9920   10.6160   49.4450 C.ar  283  TYR283     -0.0201
    119  CD1       40.7150   11.7600   49.7680 C.ar  283  TYR283     -0.0009
    120  CD2       39.2390   10.5970   48.2740 C.ar  283  TYR283     -0.0009
    121  CE1       40.7160   12.8670   48.9230 C.ar  283  TYR283      0.0417
    122  CE2       39.2310   11.7000   47.4140 C.ar  283  TYR283      0.0417
    123  CZ        39.9920   12.8290   47.7340 C.ar  283  TYR283      0.1957
    124  OH        40.0130   13.9260   46.9270 O.3   283  TYR283     -0.2866
    125  N         40.0590   16.8330   47.6390 N.3   287  PHE287     -0.1241
    126  CA        40.4640   17.4740   46.4200 C.3   287  PHE287      0.1605
    127  C         39.3560   17.9110   45.5020 C.2   287  PHE287      0.2264
    128  O         39.6170   18.4780   44.4560 O.2   287  PHE287     -0.2867
    129  CB        41.3370   16.5190   45.6090 C.3   287  PHE287      0.0534
    130  CG        42.7010   16.3620   46.2310 C.ar  287  PHE287     -0.0203
    131  CD1       43.0600   15.2070   46.9300 C.ar  287  PHE287     -0.0042
    132  CD2       43.6420   17.3800   46.0910 C.ar  287  PHE287     -0.0042
    133  CE1       44.3260   15.0940   47.5100 C.ar  287  PHE287     -0.0003
    134  CE2       44.9050   17.2910   46.6730 C.ar  287  PHE287     -0.0003
    135  CZ        45.2330   16.1490   47.4000 C.ar  287  PHE287     -0.0000
    136  N         38.2800    2.7210   50.1750 N.3   309  GLU309     -0.1245
    137  CA        39.0020    1.8330   49.2810 C.3   309  GLU309      0.1567
    138  C         39.6600    0.7390   50.0450 C.2   309  GLU309      0.2260
    139  O         40.6950    0.9260   50.7130 O.2   309  GLU309     -0.2867
    140  CB        40.0820    2.6640   48.5890 C.3   309  GLU309      0.0388
    141  CG        39.4320    3.8990   47.9060 C.3   309  GLU309      0.1160
    142  CD        40.4850    4.7460   47.2490 C.2   309  GLU309      0.3649
    143  OE1       41.2100    4.3270   46.3830 O.co2 309  GLU309     -0.2457
    144  OE2       40.5420    5.9730   47.7090 O.co2 309  GLU309     -0.2457
@<TRIPOS>BOND
     1    59    58    2
     2    19    18    1
     3    17    18   ar
     4    17    15   ar
     5    18    16   ar
     6     1     7    1
     7     1     2    1
     8    15    13   ar
     9    39    40    1
    10     8     9    1
    11     8     3   am
    12    51    50    2
    13    58    57    1
    14     9    10    1
    15     9    12    1
    16     7     6    1
    17    16    14   ar
    18    10    11    2
    19     2     3    1
    20     2     5    1
    21    13    14   ar
    22    13    12    1
    23     3     4    2
    24    40    41    1
    25    40    43    1
    26    50    56   am
    27    50    49    1
    28    60    57    1
    29    60    61    1
    30    57    56    1
    31    48    49    1
    32    41    42    2
    33     6     5    1
    34    43    44    1
    35    44    45    1
    36    49    52    1
    37    52    53    1
    38    55    53    1
    39    61    63   ar
    40    61    62   ar
    41    53    54    1
    42    63    65   ar
    43    46    45    1
    44    46    47    1
    45    70    71    1
    46    70    67    1
    47    62    64   ar
    48    84    82   ar
    49    84    86   ar
    50    66    67    1
    51    69    68    2
    52    87    86    1
    53    65    64   ar
    54    71    73   ar
    55    71    72   ar
    56    23    22    2
    57    73    75   ar
    58    67    68    1
    59    82    81   ar
    60    86    85   ar
    61    72    74   ar
    62   128   127    2
    63    75    74   ar
    64    20    21    1
    65    22    21    1
    66    22    28   am
    67    81    80    1
    68    81    83   ar
    69    85    83   ar
    70    76    77    1
    71    29    30    1
    72    29    28    1
    73    29    32    1
    74    21    24    1
    75   127   126    1
    76    30    31    2
    77    80    77    1
    78   129   130    1
    79   129   126    1
    80    33    32    1
    81    33    34    1
    82    79    78    2
    83    38    36    1
    84   132   130   ar
    85   132   134   ar
    86    77    78    1
    87    35    36    2
    88    35    34    1
    89   130   131   ar
    90   143   142   ar
    91   126   125    1
    92    36    37    1
    93   134   135   ar
    94   124   123    1
    95   131   133   ar
    96    24    25    1
    97   142   144   ar
    98   142   141    1
    99   135   133   ar
   100   122   123   ar
   101   122   120   ar
   102    25    26    2
   103    25    27   am
   104   123   121   ar
   105   141   140    1
   106   120   118   ar
   107   140   137    1
   108   121   119   ar
   109   137   138    1
   110   137   136    1
   111   118   119   ar
   112   118   117    1
   113    94    93    1
   114    92    93    1
   115    92    89    1
   116   103   101   ar
   117    93    95    1
   118   138   139    2
   119    91    90    2
   120    88    89    1
   121   117   114    1
   122   102   101   ar
   123    90    89    1
   124   101   100    1
   125   109   108    1
   126   109   110    1
   127   108   105    1
   128   116   115    2
   129   112   110   am
   130   110   111    2
   131   115   114    1
   132   114   113    1
   133   107   106    2
   134   100    97    1
   135   105   104    1
   136   105   106    1
   137    97    98    1
   138    97    96    1
   139    99    98    2
