@<TRIPOS>MOLECULE
tmp/1so2D00.pdb
 221 218 0 0 0
SMALL
GASTEIGER

@<TRIPOS>ATOM
      1  N         27.0830   28.6310   56.6330 N.3    78  TYR78      -0.1227
      2  CA        27.0460   30.0830   56.8120 C.3    78  TYR78       0.1736
      3  C         26.0010   30.8340   55.9670 C.2    78  TYR78       0.2595
      4  O         25.0480   31.3990   56.5110 O.2    78  TYR78      -0.2718
      5  CB        28.4270   30.6900   56.5680 C.3    78  TYR78       0.0548
      6  CG        28.5310   32.1750   56.8950 C.ar   78  TYR78      -0.0200
      7  CD1       28.9030   32.6190   58.1720 C.ar   78  TYR78      -0.0009
      8  CD2       28.2690   33.1410   55.9190 C.ar   78  TYR78      -0.0009
      9  CE1       29.0190   33.9990   58.4600 C.ar   78  TYR78       0.0417
     10  CE2       28.3750   34.5160   56.1910 C.ar   78  TYR78       0.0417
     11  CZ        28.7490   34.9480   57.4440 C.ar   78  TYR78       0.1957
     12  OH        28.8890   36.3130   57.6770 O.3    78  TYR78      -0.2866
     13  N         26.1730   30.8390   54.6510 N.am   79  HIS79      -0.1975
     14  CA        25.2590   31.5480   53.7540 C.3    79  HIS79       0.1656
     15  C         23.9060   30.8520   53.5430 C.2    79  HIS79       0.2291
     16  O         23.5920   30.3650   52.4500 O.2    79  HIS79      -0.2864
     17  CB        25.9490   31.7740   52.4060 C.3    79  HIS79       0.0771
     18  CG        27.2110   32.5760   52.4960 C.ar   79  HIS79       0.0820
     19  ND1       28.4540   32.0170   52.2990 N.ar   79  HIS79      -0.2267
     20  CD2       27.4240   33.8930   52.7230 C.ar   79  HIS79       0.1154
     21  CE1       29.3790   32.9560   52.3950 C.ar   79  HIS79       0.1986
     22  NE2       28.7810   34.1040   52.6520 N.ar   79  HIS79      -0.2212
     23  N         23.2050   30.2040   47.3080 N.3   154  HIS154     -0.1241
     24  CA        24.6670   30.2320   47.4470 C.3   154  HIS154      0.1621
     25  C         25.1620   28.7740   47.5410 C.2   154  HIS154      0.2264
     26  O         24.6150   27.9710   48.2850 O.2   154  HIS154     -0.2867
     27  CB        25.0320   30.9980   48.7080 C.3   154  HIS154      0.0745
     28  CG        26.4540   31.4540   48.7630 C.ar  154  HIS154      0.0817
     29  ND1       27.5210   30.5900   48.6390 N.ar  154  HIS154     -0.2268
     30  CD2       26.9860   32.6770   48.9980 C.ar  154  HIS154      0.1154
     31  CE1       28.6500   31.2630   48.7990 C.ar  154  HIS154      0.1986
     32  NE2       28.3520   32.5330   49.0190 N.ar  154  HIS154     -0.2212
     33  N         30.6670   28.2710   48.1240 N.3   157  ARG157     -0.1231
     34  CA        31.9960   28.3800   47.5640 C.3   157  ARG157      0.1694
     35  C         32.2680   29.8340   47.2560 C.2   157  ARG157      0.2593
     36  O         31.3450   30.6590   47.2420 O.2   157  ARG157     -0.2718
     37  CB        32.0980   27.5280   46.3060 C.3   157  ARG157      0.0321
     38  CG        31.8760   26.0360   46.5540 C.3   157  ARG157      0.0489
     39  CD        33.0360   25.4070   47.3390 C.3   157  ARG157      0.2205
     40  NE        32.8630   23.9600   47.5450 N.pl3 157  ARG157     -0.0865
     41  CZ        32.1280   23.4070   48.5130 C.cat 157  ARG157      0.5346
     42  NH1       31.4840   24.1740   49.3930 N.pl3 157  ARG157      0.1354
     43  NH2       32.0230   22.0840   48.5890 N.pl3 157  ARG157      0.1354
     44  N         33.5320   30.1670   47.0320 N.am  158  THR158     -0.1939
     45  CA        33.8910   31.5480   46.7340 C.3   158  THR158      0.2028
     46  C         33.8740   31.8050   45.2400 C.2   158  THR158      0.2642
     47  O         33.7340   30.8730   44.4420 O.2   158  THR158     -0.2714
     48  CB        35.2930   31.8830   47.2360 C.3   158  THR158      0.1808
     49  OG1       36.2330   30.9830   46.6250 O.3   158  THR158     -0.2208
     50  CG2       35.3580   31.7950   48.7650 C.3   158  THR158      0.0379
     51  N         34.0220   33.0680   44.8590 N.am  159  ASN159     -0.1971
     52  CA        34.0470   33.4080   43.4380 C.3   159  ASN159      0.1688
     53  C         35.3240   32.7990   42.8860 C.2   159  ASN159      0.2292
     54  O         35.2940   32.0780   41.8820 O.2   159  ASN159     -0.2864
     55  CB        34.0300   34.9250   43.2340 C.3   159  ASN159      0.1181
     56  CG        32.6120   35.4920   43.2560 C.2   159  ASN159      0.2629
     57  OD1       31.6850   34.8530   42.7770 O.2   159  ASN159     -0.2716
     58  ND2       32.4460   36.6860   43.7860 N.am  159  ASN159     -0.0877
     59  N         28.8510   35.0140   41.8510 N.3   179  LEU179     -0.1245
     60  CA        27.8600   34.6830   42.8700 C.3   179  LEU179      0.1561
     61  C         26.7610   35.7390   43.0130 C.2   179  LEU179      0.2260
     62  O         25.5840   35.4150   43.0280 O.2   179  LEU179     -0.2867
     63  CB        28.5540   34.5140   44.2310 C.3   179  LEU179      0.0270
     64  CG        29.3080   33.2340   44.5950 C.3   179  LEU179      0.0019
     65  CD1       29.9910   33.4040   45.9620 C.3   179  LEU179      0.0001
     66  CD2       28.3350   32.0610   44.6120 C.3   179  LEU179      0.0001
     67  N         32.8560   41.3330   47.9140 N.3   224  LEU224     -0.1245
     68  CA        34.0260   41.9030   48.5790 C.3   224  LEU224      0.1561
     69  C         35.1640   42.2680   47.6480 C.2   224  LEU224      0.2260
     70  O         36.0530   43.0050   48.0400 O.2   224  LEU224     -0.2867
     71  CB        34.5090   40.9740   49.6890 C.3   224  LEU224      0.0270
     72  CG        33.5130   40.8450   50.8410 C.3   224  LEU224      0.0019
     73  CD1       34.1020   39.9420   51.9310 C.3   224  LEU224      0.0001
     74  CD2       33.1790   42.2330   51.3840 C.3   224  LEU224      0.0001
     75  N         28.5510   41.5910   56.9360 N.3   267  ILE267     -0.1245
     76  CA        29.7050   41.1830   57.7260 C.3   267  ILE267      0.1561
     77  C         29.6540   41.7050   59.1940 C.2   267  ILE267      0.2260
     78  O         30.6940   42.0210   59.7890 O.2   267  ILE267     -0.2867
     79  CB        31.0440   41.6180   57.0190 C.3   267  ILE267      0.0252
     80  CG1       31.2090   43.1420   57.0040 C.3   267  ILE267      0.0019
     81  CG2       31.0810   41.0860   55.5960 C.3   267  ILE267      0.0019
     82  CD1       32.5740   43.6060   56.4380 C.3   267  ILE267      0.0001
     83  N         29.0520   40.1120   62.0590 N.3   269  GLY269     -0.1210
     84  CA        29.5500   39.2350   63.1040 C.3   269  GLY269      0.1940
     85  C         30.5110   39.8600   64.1170 C.2   269  GLY269      0.2453
     86  O         30.1680   39.9920   65.2900 O.2   269  GLY269     -0.2732
     87  N         31.7220   40.2570   63.7120 N.am  270  PRO270     -0.2728
     88  CA        32.5980   40.8450   64.7420 C.3   270  PRO270      0.1401
     89  C         32.1210   42.1460   65.4050 C.2   270  PRO270      0.2269
     90  O         32.8540   42.7650   66.1930 O.2   270  PRO270     -0.2865
     91  CB        33.9470   41.0010   64.0210 C.3   270  PRO270      0.0296
     92  CG        33.6130   40.9650   62.5730 C.3   270  PRO270      0.0237
     93  CD        32.4400   40.0240   62.4490 C.3   270  PRO270      0.0939
     94  N         29.0490   36.7420   67.7340 N.3   277  HIS277     -0.1241
     95  CA        30.2160   36.7240   66.8820 C.3   277  HIS277      0.1621
     96  C         30.8190   35.3130   66.7430 C.2   277  HIS277      0.2264
     97  O         31.0250   34.8290   65.6280 O.2   277  HIS277     -0.2867
     98  CB        31.2380   37.7090   67.4390 C.3   277  HIS277      0.0745
     99  CG        32.6280   37.5060   66.9240 C.ar  277  HIS277      0.0817
    100  ND1       32.9060   37.3120   65.5890 N.ar  277  HIS277     -0.2268
    101  CD2       33.8250   37.5180   67.5600 C.ar  277  HIS277      0.1154
    102  CE1       34.2160   37.2190   65.4230 C.ar  277  HIS277      0.1986
    103  NE2       34.7960   37.3430   66.6040 N.ar  277  HIS277     -0.2212
    104  N         28.7920   32.9930   64.5010 N.3   280  TRP280     -0.1227
    105  CA        28.9480   33.2520   63.0770 C.3   280  TRP280      0.1737
    106  C         30.3470   32.8530   62.6040 C.2   280  TRP280      0.2596
    107  O         30.5230   32.4490   61.4530 O.2   280  TRP280     -0.2718
    108  CB        28.6740   34.7420   62.7660 C.3   280  TRP280      0.0564
    109  CG        27.2140   35.1310   62.8990 C.ar  280  TRP280      0.0003
    110  CD1       26.6680   35.9880   63.8200 C.ar  280  TRP280      0.0946
    111  CD2       26.1110   34.6130   62.1330 C.ar  280  TRP280      0.0152
    112  NE1       25.2970   36.0260   63.6770 N.ar  280  TRP280     -0.2442
    113  CE2       24.9310   35.1880   62.6530 C.ar  280  TRP280      0.0810
    114  CE3       26.0050   33.7130   61.0600 C.ar  280  TRP280      0.0012
    115  CZ2       23.6690   34.8870   62.1390 C.ar  280  TRP280      0.0191
    116  CZ3       24.7470   33.4160   60.5530 C.ar  280  TRP280      0.0001
    117  CH2       23.6000   33.9990   61.0950 C.ar  280  TRP280      0.0015
    118  N         31.3360   32.9740   63.4890 N.am  281  THR281     -0.1953
    119  CA        32.7170   32.6120   63.1470 C.3   281  THR281      0.1897
    120  C         32.7740   31.1090   62.8690 C.2   281  THR281      0.2313
    121  O         33.3940   30.6580   61.9110 O.2   281  THR281     -0.2863
    122  CB        33.6780   33.0060   64.2990 C.3   281  THR281      0.1794
    123  OG1       33.6680   34.4340   64.4510 O.3   281  THR281     -0.2208
    124  CG2       35.1110   32.5500   64.0090 C.3   281  THR281      0.0378
    125  N         31.2480   30.2570   59.2590 N.3   284  ILE284     -0.1245
    126  CA        32.0790   30.5520   58.1150 C.3   284  ILE284      0.1561
    127  C         33.2500   29.5660   58.0230 C.2   284  ILE284      0.2260
    128  O         33.5120   28.9820   56.9620 O.2   284  ILE284     -0.2867
    129  CB        32.6040   31.9960   58.1560 C.3   284  ILE284      0.0252
    130  CG1       33.2930   32.3290   56.8300 C.3   284  ILE284      0.0019
    131  CG2       33.5180   32.2020   59.3410 C.3   284  ILE284      0.0019
    132  CD1       32.3700   32.2310   55.6340 C.3   284  ILE284      0.0001
    133  N         34.2080   27.1510   54.9950 N.3   288  PHE288     -0.1241
    134  CA        35.5200   27.1700   54.3670 C.3   288  PHE288      0.1605
    135  C         36.1750   25.7770   54.3020 C.2   288  PHE288      0.2264
    136  O         36.8600   25.4520   53.3390 O.2   288  PHE288     -0.2867
    137  CB        36.4640   28.0880   55.1380 C.3   288  PHE288      0.0534
    138  CG        36.3500   29.5430   54.7770 C.ar  288  PHE288     -0.0203
    139  CD1       37.2560   30.4630   55.3010 C.ar  288  PHE288     -0.0042
    140  CD2       35.3410   30.0020   53.9310 C.ar  288  PHE288     -0.0042
    141  CE1       37.1660   31.8180   54.9960 C.ar  288  PHE288     -0.0003
    142  CE2       35.2420   31.3560   53.6170 C.ar  288  PHE288     -0.0003
    143  CZ        36.1550   32.2690   54.1500 C.ar  288  PHE288     -0.0000
    144  N         44.0260   29.4680   51.4500 N.3   304  PRO304     -0.2102
    145  CA        44.3020   29.9380   52.8070 C.3   304  PRO304      0.1504
    146  C         43.0620   29.9140   53.6970 C.2   304  PRO304      0.2576
    147  O         41.9530   30.2190   53.2540 O.2   304  PRO304     -0.2718
    148  CB        44.8380   31.3370   52.5740 C.3   304  PRO304      0.0282
    149  CG        45.6050   31.1780   51.2920 C.3   304  PRO304      0.0208
    150  CD        44.6600   30.3420   50.4470 C.3   304  PRO304      0.0893
    151  N         43.2780   29.5250   54.9470 N.am  305  PHE305     -0.1963
    152  CA        42.2560   29.3920   55.9750 C.3   305  PHE305      0.1771
    153  C         41.2520   28.3040   55.7040 C.2   305  PHE305      0.2619
    154  O         40.3220   28.1160   56.4820 O.2   305  PHE305     -0.2715
    155  CB        41.5390   30.7190   56.2070 C.3   305  PHE305      0.0574
    156  CG        42.4730   31.8570   56.4350 C.ar  305  PHE305     -0.0200
    157  CD1       42.6730   32.8180   55.4460 C.ar  305  PHE305     -0.0042
    158  CD2       43.2240   31.9260   57.6020 C.ar  305  PHE305     -0.0042
    159  CE1       43.6170   33.8250   55.6160 C.ar  305  PHE305     -0.0003
    160  CE2       44.1780   32.9340   57.7850 C.ar  305  PHE305     -0.0003
    161  CZ        44.3760   33.8820   56.7920 C.ar  305  PHE305     -0.0000
    162  N         41.4390   27.5460   54.6310 N.am  306  MET306     -0.1977
    163  CA        40.4700   26.4990   54.3360 C.3   306  MET306      0.1605
    164  C         40.9320   25.0470   54.5550 C.2   306  MET306      0.2287
    165  O         40.2560   24.0790   54.1670 O.2   306  MET306     -0.2864
    166  CB        39.9270   26.7090   52.9210 C.3   306  MET306      0.0413
    167  CG        39.4900   28.1610   52.6780 C.3   306  MET306      0.0598
    168  SD        38.3030   28.3780   51.3280 S.3   306  MET306     -0.1393
    169  CE        38.0450   30.2100   51.3760 C.3   306  MET306      0.0692
    170  N         42.6270   34.4220   60.6860 N.3   316  LEU316     -0.1231
    171  CA        41.5500   34.7230   59.7580 C.3   316  LEU316      0.1693
    172  C         40.6810   35.8310   60.3480 C.2   316  LEU316      0.2591
    173  O         40.3620   36.8220   59.6910 O.2   316  LEU316     -0.2718
    174  CB        40.6640   33.4860   59.5160 C.3   316  LEU316      0.0284
    175  CG        39.3100   33.7800   58.8270 C.3   316  LEU316      0.0019
    176  CD1       39.5820   34.2700   57.4270 C.3   316  LEU316      0.0001
    177  CD2       38.4220   32.5690   58.7480 C.3   316  LEU316      0.0001
    178  N         40.2850   35.6490   61.5940 N.am  317  GLN317     -0.1979
    179  CA        39.4620   36.6220   62.2530 C.3   317  GLN317      0.1601
    180  C         40.2130   37.9190   62.5450 C.2   317  GLN317      0.2287
    181  O         39.6750   39.0050   62.3420 O.2   317  GLN317     -0.2864
    182  CB        38.8900   36.0020   63.5230 C.3   317  GLN317      0.0394
    183  CG        37.9300   34.8670   63.2110 C.3   317  GLN317      0.0908
    184  CD        36.7660   35.3490   62.3480 C.2   317  GLN317      0.2608
    185  OE1       36.3190   36.5100   62.4440 O.2   317  GLN317     -0.2717
    186  NE2       36.2670   34.4510   61.4940 N.am  317  GLN317     -0.0878
    187  N         42.5960   39.1930   60.9310 N.3   319  SER319     -0.1202
    188  CA        42.8460   39.8310   59.6390 C.3   319  SER319      0.2020
    189  C         41.6090   40.4750   59.0320 C.2   319  SER319      0.2618
    190  O         41.6230   41.6200   58.5860 O.2   319  SER319     -0.2717
    191  CB        43.3760   38.7930   58.6600 C.3   319  SER319      0.2103
    192  OG        44.4760   39.3190   57.9630 O.3   319  SER319     -0.2182
    193  N         40.5380   39.7100   59.0150 N.am  320  PHE320     -0.1975
    194  CA        39.3070   40.1840   58.4710 C.3   320  PHE320      0.1639
    195  C         38.8420   41.4400   59.1890 C.2   320  PHE320      0.2290
    196  O         38.2620   42.3510   58.5900 O.2   320  PHE320     -0.2864
    197  CB        38.2490   39.1140   58.6100 C.3   320  PHE320      0.0560
    198  CG        37.0810   39.3290   57.7210 C.ar  320  PHE320     -0.0200
    199  CD1       37.2210   39.1950   56.3390 C.ar  320  PHE320     -0.0042
    200  CD2       35.8480   39.6870   58.2450 C.ar  320  PHE320     -0.0042
    201  CE1       36.1460   39.4070   55.5030 C.ar  320  PHE320     -0.0003
    202  CE2       34.7680   39.8990   57.4110 C.ar  320  PHE320     -0.0003
    203  CZ        34.9180   39.7640   56.0370 C.ar  320  PHE320     -0.0000
    204  N         41.5360   44.3470   58.2720 N.3   323  HIS323     -0.1226
    205  CA        41.5350   44.7580   56.8730 C.3   323  HIS323      0.1752
    206  C         40.1980   45.0150   56.2090 C.2   323  HIS323      0.2595
    207  O         40.1500   45.6750   55.1660 O.2   323  HIS323     -0.2718
    208  CB        42.2840   43.7240   56.0240 C.3   323  HIS323      0.0759
    209  CG        43.7100   43.5200   56.4340 C.ar  323  HIS323      0.0818
    210  ND1       44.7170   44.3990   56.1000 N.ar  323  HIS323     -0.2268
    211  CD2       44.2870   42.5560   57.1930 C.ar  323  HIS323      0.1154
    212  CE1       45.8540   43.9880   56.6360 C.ar  323  HIS323      0.1986
    213  NE2       45.6200   42.8710   57.3050 N.ar  323  HIS323     -0.2212
    214  N         39.1200   44.4730   56.7650 N.am  324  ILE324     -0.1980
    215  CA        37.8150   44.6990   56.1680 C.3   324  ILE324      0.1595
    216  C         36.8180   45.3030   57.1510 C.2   324  ILE324      0.2287
    217  O         36.5830   46.5100   57.1100 O.2   324  ILE324     -0.2864
    218  CB        37.2410   43.3980   55.5300 C.3   324  ILE324      0.0276
    219  CG1       38.0740   42.9850   54.3200 C.3   324  ILE324      0.0022
    220  CG2       35.8600   43.6320   55.0070 C.3   324  ILE324      0.0022
    221  CD1       39.2900   42.2120   54.6400 C.3   324  ILE324      0.0001
@<TRIPOS>BOND
     1    59    60    1
     2    54    53    2
     3    57    56    2
     4    60    61    1
     5    60    63    1
     6    53    52    1
     7    61    62    2
     8    55    56    1
     9    55    52    1
    10    56    58   am
    11    52    51    1
    12    63    64    1
    13    47    46    2
    14    64    66    1
    15    64    65    1
    16    51    46   am
    17    46    45    1
    18    37    38    1
    19    37    34    1
    20    38    39    1
    21    49    48    1
    22    45    44    1
    23    45    48    1
    24    44    35   am
    25    48    50    1
    26    36    35    2
    27    35    34    1
    28    23    24    1
    29    39    40    1
    30    24    25    1
    31    24    27    1
    32    25    26    2
    33    40    41    2
    34    34    33    1
    35    69    70    2
    36    69    68    1
    37    67    68    1
    38    41    43    1
    39    41    42    1
    40    68    71    1
    41    29    28   ar
    42    29    31   ar
    43    27    28    1
    44    28    30   ar
    45    31    32   ar
    46    30    32   ar
    47    71    72    1
    48   150   149    1
    49   150   144    1
    50    72    74    1
    51    72    73    1
    52   149   148    1
    53   168   169    1
    54   168   167    1
    55   144   145    1
    56    19    21   ar
    57    19    18   ar
    58    21    22   ar
    59    17    18    1
    60    17    14    1
    61    16    15    2
    62    18    20   ar
    63   148   145    1
    64    22    20   ar
    65   167   166    1
    66   145   146    1
    67   166   163    1
    68   147   146    2
    69   136   135    2
    70    15    14    1
    71   142   140   ar
    72   142   143   ar
    73   146   151   am
    74    14    13    1
    75   140   138   ar
    76   143   141   ar
    77   165   164    2
    78   135   134    1
    79   219   221    1
    80   219   218    1
    81   163   164    1
    82   163   162    1
    83   134   133    1
    84   134   137    1
    85   162   153   am
    86    13     3   am
    87   138   137    1
    88   138   139   ar
    89   151   152    1
    90   141   139   ar
    91   220   218    1
    92   207   206    2
    93   157   159   ar
    94   157   156   ar
    95   201   203   ar
    96   201   199   ar
    97   218   215    1
    98    81    79    1
    99   159   161   ar
   100   132   130    1
   101   153   152    1
   102   153   154    2
   103     8    10   ar
   104     8     6   ar
   105     3     4    2
   106     3     2    1
   107   152   155    1
   108   208   209    1
   109   208   205    1
   110   203   202   ar
   111   210   209   ar
   112   210   212   ar
   113   215   214    1
   114   215   216    1
   115    10    11   ar
   116   155   156    1
   117   206   214   am
   118   206   205    1
   119   199   198   ar
   120   209   211   ar
   121   156   158   ar
   122    82    80    1
   123     5     2    1
   124     5     6    1
   125     1     2    1
   126   212   213   ar
   127   161   160   ar
   128   130   129    1
   129   205   204    1
   130     6     7   ar
   131    75    76    1
   132   128   127    2
   133    80    79    1
   134    79    76    1
   135   217   216    2
   136   211   213   ar
   137   202   200   ar
   138   176   175    1
   139    11    12    1
   140    11     9   ar
   141   158   160   ar
   142   198   200   ar
   143   198   197    1
   144    76    77    1
   145   192   191    1
   146   127   126    1
   147   126   129    1
   148   126   125    1
   149   129   131    1
   150     7     9   ar
   151   194   197    1
   152   194   193    1
   153   194   195    1
   154   190   189    2
   155   196   195    2
   156   191   188    1
   157   177   175    1
   158   175   174    1
   159   193   189   am
   160   189   188    1
   161    77    78    2
   162   174   171    1
   163   188   187    1
   164   173   172    2
   165   171   172    1
   166   171   170    1
   167   172   178   am
   168   116   114   ar
   169   116   117   ar
   170   114   111   ar
   171   117   115   ar
   172   107   106    2
   173   186   184   am
   174   178   179    1
   175   121   120    2
   176    83    84    1
   177   111   113   ar
   178   111   109   ar
   179   115   113   ar
   180   179   180    1
   181   179   182    1
   182   181   180    2
   183   184   185    2
   184   184   183    1
   185    93    92    1
   186    93    87    1
   187    92    91    1
   188   106   105    1
   189   106   118   am
   190   113   112   ar
   191   108   109    1
   192   108   105    1
   193   120   119    1
   194   109   110   ar
   195   105   104    1
   196    84    85    1
   197   119   118    1
   198   119   122    1
   199   183   182    1
   200   112   110   ar
   201    87    85   am
   202    87    88    1
   203   124   122    1
   204    91    88    1
   205    85    86    2
   206   122   123    1
   207    88    89    1
   208    89    90    2
   209   102   100   ar
   210   102   103   ar
   211   100    99   ar
   212    97    96    2
   213   103   101   ar
   214    96    95    1
   215    95    98    1
   216    95    94    1
   217    99    98    1
   218    99   101   ar
