@<TRIPOS>MOLECULE
tmp/1so2B00.pdb
 93 89 0 0 0
SMALL
GASTEIGER

@<TRIPOS>ATOM
      1  N         90.3560   28.1600   48.4440 N.3   276  LEU276     -0.1245
      2  CA        89.4180   28.8220   49.3430 C.3   276  LEU276      0.1561
      3  C         88.5700   29.8850   48.6380 C.2   276  LEU276      0.2260
      4  O         87.4400   30.1730   49.0460 O.2   276  LEU276     -0.2867
      5  CB        90.1800   29.4530   50.5090 C.3   276  LEU276      0.0270
      6  CG        91.1280   28.5150   51.2450 C.3   276  LEU276      0.0019
      7  CD1       92.0460   29.3490   52.1430 C.3   276  LEU276      0.0001
      8  CD2       90.3530   27.4840   52.0550 C.3   276  LEU276      0.0001
      9  N         85.9350   27.7720   47.0170 N.3   279  THR279     -0.1203
     10  CA        85.1160   27.2130   48.0740 C.3   279  THR279      0.1994
     11  C         84.1300   28.2500   48.5250 C.2   279  THR279      0.2617
     12  O         82.9710   27.9530   48.7230 O.2   279  THR279     -0.2717
     13  CB        85.9500   26.8110   49.2560 C.3   279  THR279      0.1784
     14  OG1       86.8560   25.8060   48.8420 O.3   279  THR279     -0.2211
     15  CG2       85.1010   26.2740   50.3580 C.3   279  THR279      0.0376
     16  N         84.6050   29.4700   48.6960 N.am  280  GLU280     -0.1979
     17  CA        83.7460   30.5810   49.0940 C.3   280  GLU280      0.1602
     18  C         82.6260   30.7990   48.0750 C.2   280  GLU280      0.2287
     19  O         81.4930   31.0700   48.4480 O.2   280  GLU280     -0.2864
     20  CB        84.5740   31.8630   49.2230 C.3   280  GLU280      0.0415
     21  CG        83.7490   33.1270   49.3810 C.3   280  GLU280      0.1163
     22  CD        84.6020   34.3630   49.7040 C.2   280  GLU280      0.3649
     23  OE1       84.0140   35.4220   50.0230 O.co2 280  GLU280     -0.2457
     24  OE2       85.8540   34.2720   49.6340 O.co2 280  GLU280     -0.2457
     25  N         79.8700   28.0150   48.3100 N.3   283  VAL283     -0.1231
     26  CA        79.0320   28.0970   49.5010 C.3   283  VAL283      0.1692
     27  C         78.0270   29.2290   49.3850 C.2   283  VAL283      0.2592
     28  O         76.8820   29.0820   49.7940 O.2   283  VAL283     -0.2718
     29  CB        79.8360   28.3010   50.8030 C.3   283  VAL283      0.0266
     30  CG1       80.7580   27.1510   51.0360 C.3   283  VAL283      0.0020
     31  CG2       80.6110   29.5480   50.7210 C.3   283  VAL283      0.0020
     32  N         78.4350   30.3610   48.8360 N.am  284  ASN284     -0.1974
     33  CA        77.4910   31.4500   48.7070 C.3   284  ASN284      0.1688
     34  C         76.3840   31.0510   47.7350 C.2   284  ASN284      0.2292
     35  O         75.2290   31.4150   47.9210 O.2   284  ASN284     -0.2864
     36  CB        78.1980   32.7480   48.2500 C.3   284  ASN284      0.1181
     37  CG        79.1660   33.3120   49.3190 C.2   284  ASN284      0.2629
     38  OD1       78.9500   33.1600   50.5070 O.2   284  ASN284     -0.2716
     39  ND2       80.2090   33.9800   48.8790 N.am  284  ASN284     -0.0877
     40  N         73.8600   28.8760   49.4160 N.3   287  TYR287     -0.1227
     41  CA        73.0590   29.6440   50.3620 C.3   287  TYR287      0.1736
     42  C         71.9540   30.3830   49.6380 C.2   287  TYR287      0.2595
     43  O         70.8710   30.5210   50.1680 O.2   287  TYR287     -0.2718
     44  CB        73.9400   30.6350   51.1600 C.3   287  TYR287      0.0548
     45  CG        74.8460   29.9890   52.1990 C.ar  287  TYR287     -0.0200
     46  CD1       75.8820   30.7070   52.7940 C.ar  287  TYR287     -0.0009
     47  CD2       74.6540   28.6730   52.5970 C.ar  287  TYR287     -0.0009
     48  CE1       76.7030   30.1200   53.7600 C.ar  287  TYR287      0.0417
     49  CE2       75.4620   28.0780   53.5490 C.ar  287  TYR287      0.0417
     50  CZ        76.4940   28.8020   54.1250 C.ar  287  TYR287      0.1957
     51  OH        77.3690   28.1730   54.9920 O.3   287  TYR287     -0.2866
     52  N         72.2180   30.8670   48.4320 N.am  288  GLU288     -0.1979
     53  CA        71.1580   31.5450   47.7030 C.3   288  GLU288      0.1602
     54  C         70.0840   30.5380   47.3550 C.2   288  GLU288      0.2287
     55  O         68.8980   30.8420   47.4560 O.2   288  GLU288     -0.2864
     56  CB        71.6980   32.2190   46.4580 C.3   288  GLU288      0.0415
     57  CG        72.2470   33.5780   46.7630 C.3   288  GLU288      0.1163
     58  CD        73.0880   34.1360   45.6500 C.2   288  GLU288      0.3649
     59  OE1       72.7210   33.9640   44.4600 O.co2 288  GLU288     -0.2457
     60  OE2       74.1290   34.7620   45.9730 O.co2 288  GLU288     -0.2457
     61  N         72.3420   28.6840   55.4770 N.3   306  ARG306     -0.1245
     62  CA        73.3180   29.6500   56.0120 C.3   306  ARG306      0.1563
     63  C         73.1960   29.8420   57.5330 C.2   306  ARG306      0.2260
     64  O         74.1030   30.3880   58.1750 O.2   306  ARG306     -0.2867
     65  CB        73.1680   31.0140   55.3420 C.3   306  ARG306      0.0307
     66  CG        71.8500   31.6790   55.6570 C.3   306  ARG306      0.0489
     67  CD        71.8150   33.1140   55.2310 C.3   306  ARG306      0.2205
     68  NE        71.5340   33.3110   53.8140 N.pl3 306  ARG306     -0.0865
     69  CZ        72.4620   33.3390   52.8640 C.cat 306  ARG306      0.5346
     70  NH1       73.7290   33.1800   53.1830 N.pl3 306  ARG306      0.1354
     71  NH2       72.1240   33.5490   51.5980 N.pl3 306  ARG306      0.1354
     72  N         80.3370   23.8410   56.4710 N.3   311  LEU311     -0.1245
     73  CA        81.3920   24.0930   55.5070 C.3   311  LEU311      0.1561
     74  C         82.5210   23.0710   55.5250 C.2   311  LEU311      0.2260
     75  O         82.9010   22.5550   54.4760 O.2   311  LEU311     -0.2867
     76  CB        81.9280   25.5050   55.7390 C.3   311  LEU311      0.0270
     77  CG        83.1680   26.0640   55.0170 C.3   311  LEU311      0.0019
     78  CD1       83.0340   25.9740   53.5170 C.3   311  LEU311      0.0001
     79  CD2       83.3490   27.5150   55.4590 C.3   311  LEU311      0.0001
     80  N         90.1870   20.5740   56.4180 N.3   362  TRP362     -0.1241
     81  CA        88.8310   20.2370   56.8490 C.3   362  TRP362      0.1605
     82  C         88.5920   18.9310   57.5870 C.2   362  TRP362      0.2264
     83  O         87.5420   18.7400   58.1930 O.2   362  TRP362     -0.2867
     84  CB        87.9150   20.2730   55.6230 C.3   362  TRP362      0.0550
     85  CG        88.2880   21.3230   54.6240 C.ar  362  TRP362      0.0003
     86  CD1       89.0490   21.1640   53.4890 C.ar  362  TRP362      0.0946
     87  CD2       87.8980   22.7020   54.6400 C.ar  362  TRP362      0.0152
     88  NE1       89.1510   22.3590   52.8130 N.ar  362  TRP362     -0.2442
     89  CE2       88.4500   23.3150   53.5090 C.ar  362  TRP362      0.0810
     90  CE3       87.1360   23.4700   55.5300 C.ar  362  TRP362      0.0012
     91  CZ2       88.2480   24.6540   53.2150 C.ar  362  TRP362      0.0191
     92  CZ3       86.9390   24.8120   55.2350 C.ar  362  TRP362      0.0001
     93  CH2       87.4990   25.3900   54.0950 C.ar  362  TRP362      0.0015
@<TRIPOS>BOND
     1    59    58   ar
     2    58    60   ar
     3    58    57    1
     4    56    57    1
     5    56    53    1
     6     9    10    1
     7    54    55    2
     8    54    53    1
     9    53    52    1
    10    34    35    2
    11    34    33    1
    12    10    11    1
    13    10    13    1
    14    18    19    2
    15    18    17    1
    16    36    33    1
    17    36    37    1
    18    25    26    1
    19    52    42   am
    20     1     2    1
    21    11    16   am
    22    11    12    2
    23     3     4    2
    24     3     2    1
    25    16    17    1
    26    33    32    1
    27    32    27   am
    28    14    13    1
    29    39    37   am
    30    17    20    1
    31    20    21    1
    32    13    15    1
    33    37    38    2
    34     2     5    1
    35    21    22    1
    36    27    26    1
    37    27    28    2
    38    40    41    1
    39    26    29    1
    40    24    22   ar
    41    42    43    2
    42    42    41    1
    43    22    23   ar
    44    41    44    1
    45     5     6    1
    46    31    29    1
    47    29    30    1
    48    44    45    1
    49     6     8    1
    50     6     7    1
    51    71    69    1
    52    45    47   ar
    53    45    46   ar
    54    47    49   ar
    55    46    48   ar
    56    88    86   ar
    57    88    89   ar
    58    69    70    1
    59    69    68    2
    60    91    89   ar
    61    91    93   ar
    62    86    85   ar
    63    89    87   ar
    64    78    77    1
    65    49    50   ar
    66    48    50   ar
    67    68    67    1
    68    93    92   ar
    69    50    51    1
    70    75    74    2
    71    85    87   ar
    72    85    84    1
    73    87    90   ar
    74    77    79    1
    75    77    76    1
    76    67    66    1
    77    92    90   ar
    78    65    66    1
    79    65    62    1
    80    61    62    1
    81    73    74    1
    82    73    76    1
    83    73    72    1
    84    84    81    1
    85    62    63    1
    86    80    81    1
    87    81    82    1
    88    63    64    2
    89    82    83    2
