@<TRIPOS>MOLECULE
tmp/1so6B00.pdb
 163 151 0 0 0
SMALL
GASTEIGER

@<TRIPOS>ATOM
      1  N         40.4950   10.1760    6.5870 N.3     8  ALA8       -0.1245
      2  CA        41.8300   10.2010    7.1600 C.3     8  ALA8        0.1562
      3  C         42.8400    9.4350    6.2840 C.2     8  ALA8        0.2260
      4  O         42.7230    8.2220    6.0610 O.2     8  ALA8       -0.2867
      5  CB        41.8180    9.6690    8.5840 C.3     8  ALA8        0.0290
      6  N         45.9350    8.0530    6.6150 N.3    10  ASP10      -0.1239
      7  CA        46.9450    7.5570    7.5040 C.3    10  ASP10       0.1674
      8  C         47.8490    6.6470    6.7190 C.2    10  ASP10       0.2266
      9  O         47.9180    5.4800    6.9630 O.2    10  ASP10      -0.2867
     10  CB        46.2800    6.8400    8.6820 C.3    10  ASP10       0.1410
     11  CG        45.6840    7.8170    9.6570 C.2    10  ASP10       0.3668
     12  OD1       46.4060    8.7760    9.9890 O.co2  10  ASP10      -0.2456
     13  OD2       44.5210    7.7350   10.1190 O.co2  10  ASP10      -0.2456
     14  N         41.9480   14.7150    5.4130 N.3    32  GLU32      -0.1245
     15  CA        42.9240   14.7410    6.4710 C.3    32  GLU32       0.1567
     16  C         44.2720   14.1540    6.0490 C.2    32  GLU32       0.2260
     17  O         44.3550   13.0600    5.5480 O.2    32  GLU32      -0.2867
     18  CB        42.4130   14.0570    7.7220 C.3    32  GLU32       0.0388
     19  CG        43.5000   13.5670    8.6520 C.3    32  GLU32       0.1160
     20  CD        42.9820   12.6630    9.7590 C.2    32  GLU32       0.3649
     21  OE1       41.7420   12.6680   10.0110 O.co2  32  GLU32      -0.2457
     22  OE2       43.8280   11.9700   10.3930 O.co2  32  GLU32      -0.2457
     23  N         48.2460   11.6910   10.9700 N.3    35  THR35      -0.1218
     24  CA        49.4970   11.7910   11.7070 C.3    35  THR35       0.1862
     25  C         50.5670   10.8810   11.1020 C.2    35  THR35       0.2287
     26  O         51.7480   11.2270   11.0610 O.2    35  THR35      -0.2866
     27  CB        49.2780   11.4410   13.1850 C.3    35  THR35       0.1770
     28  OG1       48.1380   12.1340   13.6740 O.3    35  THR35      -0.2211
     29  CG2       50.4120   11.9590   14.0350 C.3    35  THR35       0.0375
     30  N         46.7030   16.5590   10.6390 N.3    61  ASP61      -0.1239
     31  CA        46.4920   15.9040   11.9260 C.3    61  ASP61       0.1674
     32  C         47.8390   15.6720   12.6190 C.2    61  ASP61       0.2266
     33  O         48.3490   14.5380   12.7490 O.2    61  ASP61      -0.2867
     34  CB        45.6850   14.6170   11.7400 C.3    61  ASP61       0.1410
     35  CG        45.2440   13.9830   13.0450 C.2    61  ASP61       0.3668
     36  OD1       45.4460   14.5780   14.1500 O.co2  61  ASP61      -0.2456
     37  OD2       44.6580   12.8510   13.0400 O.co2  61  ASP61      -0.2456
     38  N         48.7250   16.5740   15.7320 N.3    63  LYS63      -0.1245
     39  CA        48.6450   16.2190   17.1460 C.3    63  LYS63       0.1561
     40  C         49.7130   16.9260   17.9390 C.2    63  LYS63       0.2260
     41  O         50.4190   16.3510   18.7500 O.2    63  LYS63      -0.2867
     42  CB        48.6830   14.6880   17.3580 C.3    63  LYS63       0.0271
     43  CG        47.3930   13.9540   16.9240 C.3    63  LYS63       0.0035
     44  CD        47.4910   12.4340   17.1460 C.3    63  LYS63       0.0206
     45  CE        46.2220   11.6160   16.6400 C.3    63  LYS63       0.1093
     46  NZ        45.8020   11.9950   15.2390 N.3    63  LYS63      -0.1314
     47  N         42.4530   17.3150   19.9620 N.3   111  GLN111     -0.1245
     48  CA        42.3050   15.8700   19.8030 C.3   111  GLN111      0.1566
     49  C         42.3360   15.2390   21.1890 C.2   111  GLN111      0.2260
     50  O         43.3390   15.3130   21.8960 O.2   111  GLN111     -0.2867
     51  CB        43.4220   15.3240   18.9200 C.3   111  GLN111      0.0367
     52  CG        43.2640   13.8220   18.6510 C.3   111  GLN111      0.0905
     53  CD        42.7730   13.4730   17.2750 C.2   111  GLN111      0.2608
     54  OE1       42.6720   12.2820   16.9350 O.2   111  GLN111     -0.2717
     55  NE2       42.4740   14.4610   16.4880 N.am  111  GLN111     -0.0878
     56  N         42.7500   12.2970   23.4220 N.3   113  THR113     -0.1218
     57  CA        42.6910   10.8790   23.8790 C.3   113  THR113      0.1862
     58  C         44.0130   10.5060   24.3460 C.2   113  THR113      0.2287
     59  O         45.0510   10.9050   23.7800 O.2   113  THR113     -0.2866
     60  CB        42.2280    9.8650   22.7580 C.3   113  THR113      0.1770
     61  OG1       41.9610    8.5630   23.3220 O.3   113  THR113     -0.2211
     62  CG2       43.2420    9.6460   21.6460 C.3   113  THR113      0.0375
     63  N         38.0020   10.9310   20.0670 N.3   135  ALA135     -0.1231
     64  CA        38.6090    9.8150   19.3620 C.3   135  ALA135      0.1694
     65  C         38.8160    8.6170   20.2510 C.2   135  ALA135      0.2592
     66  O         39.3450    8.7380   21.3630 O.2   135  ALA135     -0.2718
     67  CB        39.9130   10.2190   18.8020 C.3   135  ALA135      0.0304
     68  N         38.4360    7.4450   19.7500 N.am  136  ARG136     -0.1966
     69  CA        38.8760    6.1920   20.3220 C.3   136  ARG136      0.1729
     70  C         40.1980    5.8400   19.6630 C.2   136  ARG136      0.2617
     71  O         40.3040    5.7700   18.4530 O.2   136  ARG136     -0.2715
     72  CB        37.8340    5.0990   20.0800 C.3   136  ARG136      0.0348
     73  CG        38.2900    3.6850   20.4000 C.3   136  ARG136      0.0492
     74  CD        37.1680    2.6530   20.2370 C.3   136  ARG136      0.2205
     75  NE        36.7930    2.5530   18.8230 N.pl3 136  ARG136     -0.0865
     76  CZ        36.1440    1.5410   18.2600 C.cat 136  ARG136      0.5346
     77  NH1       35.7480    0.4870   18.9750 N.pl3 136  ARG136      0.1354
     78  NH2       35.8850    1.5770   16.9660 N.pl3 136  ARG136      0.1354
     79  N         41.2160    5.6660   20.4730 N.am  137  SER137     -0.1936
     80  CA        42.5410    5.2920   20.0030 C.3   137  SER137      0.2055
     81  C         42.4770    3.9500   19.2450 C.2   137  SER137      0.2642
     82  O         41.7580    3.0180   19.6480 O.2   137  SER137     -0.2714
     83  CB        43.4930    5.1830   21.2110 C.3   137  SER137      0.2130
     84  OG        44.5480    4.2630   20.9460 O.3   137  SER137     -0.2179
     85  N         43.2300    3.8890   18.1560 N.am  138  ARG138     -0.1977
     86  CA        43.4210    2.7020   17.3670 C.3   138  ARG138      0.1597
     87  C         43.8920    1.5530   18.2460 C.2   138  ARG138      0.2287
     88  O         43.4830    0.4290   18.0710 O.2   138  ARG138     -0.2864
     89  CB        44.4910    3.0200   16.3240 C.3   138  ARG138      0.0334
     90  CG        44.7960    1.9230   15.3820 C.3   138  ARG138      0.0492
     91  CD        45.9630    2.1740   14.5120 C.3   138  ARG138      0.2205
     92  NE        45.7450    3.3280   13.6290 N.pl3 138  ARG138     -0.0865
     93  CZ        45.5070    3.2690   12.3190 C.cat 138  ARG138      0.5346
     94  NH1       45.4440    2.1070   11.6800 N.pl3 138  ARG138      0.1354
     95  NH2       45.2930    4.3890   11.6380 N.pl3 138  ARG138      0.1354
     96  N         35.4960   10.0070   15.8930 N.3   168  THR168     -0.1203
     97  CA        36.4130    9.1600   15.1450 C.3   168  THR168      0.1994
     98  C         37.0010    7.9880   15.9580 C.2   168  THR168      0.2618
     99  O         37.0140    7.9830   17.1920 O.2   168  THR168     -0.2717
    100  CB        37.5520   10.0070   14.5740 C.3   168  THR168      0.1784
    101  OG1       38.2540    9.2400   13.5880 O.3   168  THR168     -0.2211
    102  CG2       38.6270   10.3470   15.6580 C.3   168  THR168      0.0376
    103  N         37.5050    6.9910   15.2550 N.am  169  GLY169     -0.1942
    104  CA        38.2840    5.9380   15.8640 C.3   169  GLY169      0.2014
    105  C         37.7470    4.5990   15.4400 C.2   169  GLY169      0.2639
    106  O         36.8590    4.0370   16.1060 O.2   169  GLY169     -0.2714
    107  N         38.2670    4.1040   14.3220 N.am  170  GLY170     -0.1939
    108  CA        37.8400    2.8480   13.7490 C.3   170  GLY170      0.2014
    109  C         36.3460    2.7850   13.4620 C.2   170  GLY170      0.2638
    110  O         35.7590    1.7060   13.5570 O.2   170  GLY170     -0.2714
    111  N         35.7230    3.9110   13.1240 N.am  171  LEU171     -0.1977
    112  CA        34.3070    3.8980   12.8430 C.3   171  LEU171      0.1596
    113  C         33.9870    2.9590   11.6780 C.2   171  LEU171      0.2287
    114  O         34.6380    2.9550   10.6070 O.2   171  LEU171     -0.2864
    115  CB        33.7430    5.2900   12.5150 C.3   171  LEU171      0.0297
    116  CG        33.6780    6.2950   13.6730 C.3   171  LEU171      0.0022
    117  CD1       33.1980    7.6160   13.1390 C.3   171  LEU171      0.0001
    118  CD2       32.7650    5.7990   14.8350 C.3   171  LEU171      0.0001
    119  N         34.8980   10.9350   11.0080 N.3   188  ILE188     -0.1231
    120  CA        36.0980   10.5960   10.2560 C.3   188  ILE188      0.1692
    121  C         36.0980    9.1140   10.0050 C.2   188  ILE188      0.2592
    122  O         35.7960    8.3480   10.9070 O.2   188  ILE188     -0.2718
    123  CB        37.3770   10.9190   11.0330 C.3   188  ILE188      0.0266
    124  CG1       37.4050   12.3620   11.5030 C.3   188  ILE188      0.0019
    125  CG2       38.6150   10.5930   10.1900 C.3   188  ILE188      0.0020
    126  CD1       38.6570   12.7170   12.4090 C.3   188  ILE188      0.0001
    127  N         36.4620    8.7200    8.7900 N.am  189  ALA189     -0.1966
    128  CA        36.7330    7.3050    8.4740 C.3   189  ALA189      0.1728
    129  C         38.0730    7.2230    7.7710 C.2   189  ALA189      0.2617
    130  O         38.2780    7.8620    6.7260 O.2   189  ALA189     -0.2715
    131  CB        35.6830    6.8010    7.5890 C.3   189  ALA189      0.0334
    132  N         38.9860    6.4840    8.3540 N.am  190  GLY190     -0.1940
    133  CA        40.2320    6.1310    7.7110 C.3   190  GLY190      0.2014
    134  C         40.1110    4.7760    7.0650 C.2   190  GLY190      0.2639
    135  O         39.7520    4.6690    5.8880 O.2   190  GLY190     -0.2714
    136  N         40.4090    3.7380    7.8450 N.am  191  ARG191     -0.1963
    137  CA        40.4440    2.3630    7.3590 C.3   191  ARG191      0.1729
    138  C         39.1470    1.9300    6.6700 C.2   191  ARG191      0.2616
    139  O         39.1930    1.2950    5.6300 O.2   191  ARG191     -0.2715
    140  CB        40.7200    1.3800    8.5290 C.3   191  ARG191      0.0348
    141  CG        42.1620    1.3660    8.9720 C.3   191  ARG191      0.0492
    142  CD        42.3440    0.8020   10.3630 C.3   191  ARG191      0.2205
    143  NE        41.8530    1.7150   11.4010 N.pl3 191  ARG191     -0.0865
    144  CZ        41.6840    1.3790   12.6640 C.cat 191  ARG191      0.5346
    145  NH1       41.2730    2.2720   13.5180 N.pl3 191  ARG191      0.1354
    146  NH2       41.9450    0.1590   13.0850 N.pl3 191  ARG191      0.1354
    147  N         37.9970    2.2860    7.2250 N.am  192  SER192     -0.1950
    148  CA        36.7130    1.8010    6.6740 C.3   192  SER192      0.1924
    149  C         36.3970    2.3610    5.2620 C.2   192  SER192      0.2314
    150  O         35.5860    1.8100    4.5430 O.2   192  SER192     -0.2863
    151  CB        35.5730    2.0530    7.6860 C.3   192  SER192      0.2116
    152  OG        35.3610    3.4550    7.7990 O.3   192  SER192     -0.2180
    153  N         39.5100    3.6620    3.2110 N.3   194  ARG194     -0.1245
    154  CA        40.7380    3.3580    2.4310 C.3   194  ARG194      0.1563
    155  C         40.8650    1.8700    2.0600 C.2   194  ARG194      0.2260
    156  O         41.3500    1.5140    0.9760 O.2   194  ARG194     -0.2867
    157  CB        42.0010    3.7610    3.1900 C.3   194  ARG194      0.0307
    158  CG        42.1560    5.2880    3.4560 C.3   194  ARG194      0.0489
    159  CD        43.6120    5.6760    3.7060 C.3   194  ARG194      0.2205
    160  NE        44.1920    4.7100    4.6340 N.pl3 194  ARG194     -0.0865
    161  CZ        44.0000    4.6930    5.9490 C.cat 194  ARG194      0.5346
    162  NH1       43.3340    5.6590    6.5840 N.pl3 194  ARG194      0.1354
    163  NH2       44.5180    3.6880    6.6620 N.pl3 194  ARG194      0.1354
@<TRIPOS>BOND
     1   156   155    2
     2   155   154    1
     3   154   157    1
     4   154   153    1
     5   157   158    1
     6   158   159    1
     7   159   160    1
     8   150   149    2
     9   160   161    2
    10   149   148    1
    11    14    15    1
    12    17    16    2
    13   139   138    2
    14   135   134    2
    15   161   162    1
    16   161   163    1
    17    16    15    1
    18     4     3    2
    19     3     2    1
    20    15    18    1
    21     1     2    1
    22     6     7    1
    23   138   147   am
    24   138   137    1
    25   148   147    1
    26   148   151    1
    27     8     9    2
    28     8     7    1
    29   130   129    2
    30   134   133    1
    31   134   136   am
    32     2     5    1
    33   137   136    1
    34   137   140    1
    35     7    10    1
    36   131   128    1
    37   151   152    1
    38   133   132    1
    39    18    19    1
    40   129   132   am
    41   129   128    1
    42   128   127    1
    43   140   141    1
    44    19    20    1
    45    10    11    1
    46   127   121   am
    47   141   142    1
    48    11    12   ar
    49    11    13   ar
    50    20    21   ar
    51    20    22   ar
    52   121   120    1
    53   121   122    2
    54   125   123    1
    55   120   119    1
    56   120   123    1
    57   142   143    1
    58   114   113    2
    59    30    31    1
    60    23    24    1
    61   123   124    1
    62    26    25    2
    63    25    24    1
    64   143   144    2
    65   124   126    1
    66    95    93    1
    67   113   112    1
    68    94    93    1
    69    24    27    1
    70    34    31    1
    71    34    35    1
    72    31    32    1
    73    93    92    2
    74   115   112    1
    75   115   116    1
    76    32    33    2
    77   144   146    1
    78   144   145    1
    79   112   111    1
    80    37    35   ar
    81    35    36   ar
    82   111   109   am
    83   117   116    1
    84    27    28    1
    85    27    29    1
    86   109   110    2
    87   109   108    1
    88   101   100    1
    89    92    91    1
    90   116   118    1
    91   108   107    1
    92   107   105   am
    93    91    90    1
    94   100    97    1
    95   100   102    1
    96    97    96    1
    97    97    98    1
    98    46    45    1
    99   103   104    1
   100   103    98   am
   101    90    89    1
   102   105   104    1
   103   105   106    2
   104    38    39    1
   105    98    99    2
   106    89    86    1
   107    55    53   am
   108    45    44    1
   109    43    44    1
   110    43    42    1
   111    54    53    2
   112    78    76    1
   113    39    42    1
   114    39    40    1
   115    53    52    1
   116    86    85    1
   117    86    87    1
   118    40    41    2
   119    88    87    2
   120    85    81   am
   121    76    75    2
   122    76    77    1
   123    71    70    2
   124    52    51    1
   125    67    64    1
   126    75    74    1
   127    51    48    1
   128    81    82    2
   129    81    80    1
   130    64    63    1
   131    64    65    1
   132    70    69    1
   133    70    79   am
   134    68    65   am
   135    68    69    1
   136    48    47    1
   137    48    49    1
   138    80    79    1
   139    80    83    1
   140    72    69    1
   141    72    73    1
   142    74    73    1
   143    65    66    2
   144    84    83    1
   145    49    50    2
   146    62    60    1
   147    60    61    1
   148    60    57    1
   149    56    57    1
   150    59    58    2
   151    57    58    1
