@<TRIPOS>MOLECULE
tmp/1sofG00.pdb
 112 104 0 0 0
SMALL
GASTEIGER

@<TRIPOS>ATOM
      1  N         60.5640   71.2790  133.3190 N.3    19  LEU19      -0.1245
      2  CA        60.7790   70.2180  134.2950 C.3    19  LEU19       0.1561
      3  C         59.4840   69.9690  135.0540 C.2    19  LEU19       0.2260
      4  O         59.1630   68.8280  135.3730 O.2    19  LEU19      -0.2867
      5  CB        61.9150   70.5870  135.2610 C.3    19  LEU19       0.0270
      6  CG        63.3210   70.6770  134.6430 C.3    19  LEU19       0.0019
      7  CD1       64.2920   71.3090  135.6270 C.3    19  LEU19       0.0001
      8  CD2       63.7930   69.2960  134.2380 C.3    19  LEU19       0.0001
      9  N         57.0820   68.0820  132.7390 N.3    22  ILE22      -0.1231
     10  CA        57.4950   66.6930  132.6400 C.3    22  ILE22       0.1692
     11  C         56.8770   65.8530  133.7570 C.2    22  ILE22       0.2592
     12  O         56.1980   64.8540  133.4870 O.2    22  ILE22      -0.2718
     13  CB        59.0310   66.5830  132.6960 C.3    22  ILE22       0.0266
     14  CG1       59.6270   67.2010  131.4290 C.3    22  ILE22       0.0019
     15  CG2       59.4600   65.1300  132.8490 C.3    22  ILE22       0.0020
     16  CD1       61.1320   67.2890  131.4460 C.3    22  ILE22       0.0001
     17  N         57.1000   66.2760  135.0010 N.am   23  ASN23      -0.1974
     18  CA        56.6050   65.5570  136.1760 C.3    23  ASN23       0.1688
     19  C         55.0860   65.4850  136.2890 C.2    23  ASN23       0.2292
     20  O         54.5280   64.4510  136.6350 O.2    23  ASN23      -0.2864
     21  CB        57.1650   66.1990  137.4450 C.3    23  ASN23       0.1181
     22  CG        58.6140   65.8350  137.7000 C.2    23  ASN23       0.2629
     23  OD1       59.4180   65.7630  136.7810 O.2    23  ASN23      -0.2716
     24  ND2       58.9540   65.6240  138.9650 N.am   23  ASN23      -0.0877
     25  N         53.5750   63.2590  133.2990 N.3    26  PHE26      -0.1241
     26  CA        53.8770   61.8510  133.4740 C.3    26  PHE26       0.1605
     27  C         52.9540   61.2610  134.5250 C.2    26  PHE26       0.2264
     28  O         52.3230   60.2260  134.3090 O.2    26  PHE26      -0.2867
     29  CB        55.3570   61.6230  133.8880 C.3    26  PHE26       0.0534
     30  CG        55.7680   60.2040  133.7010 C.ar   26  PHE26      -0.0203
     31  CD1       56.2180   59.7650  132.4600 C.ar   26  PHE26      -0.0042
     32  CD2       55.6490   59.2820  134.7370 C.ar   26  PHE26      -0.0042
     33  CE1       56.5380   58.4200  132.2460 C.ar   26  PHE26      -0.0003
     34  CE2       55.9650   57.9370  134.5370 C.ar   26  PHE26      -0.0003
     35  CZ        56.4110   57.5020  133.2860 C.ar   26  PHE26      -0.0000
     36  N         50.0470   58.3560  133.9800 N.3    30  ARG30      -0.1245
     37  CA        49.9220   57.0650  134.6460 C.3    30  ARG30       0.1563
     38  C         48.6510   56.9660  135.4840 C.2    30  ARG30       0.2260
     39  O         48.2080   55.8700  135.8230 O.2    30  ARG30      -0.2867
     40  CB        51.1490   56.7680  135.5080 C.3    30  ARG30       0.0307
     41  CG        52.4360   56.6450  134.7180 C.3    30  ARG30       0.0489
     42  CD        52.2380   55.8600  133.4250 C.3    30  ARG30       0.2205
     43  NE        53.5090   55.4220  132.8440 N.pl3  30  ARG30      -0.0865
     44  CZ        53.7530   55.3200  131.5370 C.cat  30  ARG30       0.5346
     45  NH1       52.8120   55.6370  130.6550 N.pl3  30  ARG30       0.1354
     46  NH2       54.9340   54.8830  131.1140 N.pl3  30  ARG30       0.1354
     47  N         51.1140   60.8340  127.9890 N.3    45  TYR45      -0.1241
     48  CA        52.4560   60.2870  127.9500 C.3    45  TYR45       0.1605
     49  C         53.3150   60.9750  126.9000 C.2    45  TYR45       0.2264
     50  O         54.3600   61.5380  127.2110 O.2    45  TYR45      -0.2867
     51  CB        52.3800   58.7770  127.6740 C.3    45  TYR45       0.0534
     52  CG        53.7200   58.0830  127.5720 C.ar   45  TYR45      -0.0201
     53  CD1       54.4390   57.7350  128.7140 C.ar   45  TYR45      -0.0009
     54  CD2       54.2880   57.8160  126.3250 C.ar   45  TYR45      -0.0009
     55  CE1       55.7020   57.1380  128.6150 C.ar   45  TYR45       0.0417
     56  CE2       55.5370   57.2280  126.2160 C.ar   45  TYR45       0.0417
     57  CZ        56.2440   56.8920  127.3590 C.ar   45  TYR45       0.1957
     58  OH        57.4980   56.3270  127.2360 O.3    45  TYR45      -0.2866
     59  N         56.8280   63.1340  127.0860 N.3    49  ILE49      -0.1245
     60  CA        58.0580   62.8390  126.3670 C.3    49  ILE49       0.1561
     61  C         58.4910   64.0880  125.5950 C.2    49  ILE49       0.2260
     62  O         59.6820   64.4100  125.5160 O.2    49  ILE49      -0.2867
     63  CB        57.8490   61.6640  125.3780 C.3    49  ILE49       0.0252
     64  CG1       57.5430   60.3770  126.1490 C.3    49  ILE49       0.0019
     65  CG2       59.0900   61.4670  124.5140 C.3    49  ILE49       0.0019
     66  CD1       58.6870   59.8980  127.0500 C.3    49  ILE49       0.0001
     67  N         60.1830   66.4430  127.8060 N.3    52  MET52      -0.1230
     68  CA        61.5120   65.9440  128.1210 C.3    52  MET52       0.1702
     69  C         62.4920   66.3520  127.0100 C.2    52  MET52       0.2592
     70  O         63.6010   66.8020  127.2890 O.2    52  MET52      -0.2718
     71  CB        61.5150   64.4230  128.3100 C.3    52  MET52       0.0401
     72  CG        60.7940   63.9490  129.5620 C.3    52  MET52       0.0596
     73  SD        60.5130   62.1640  129.5970 S.3    52  MET52      -0.1393
     74  CE        59.3480   62.0400  130.9510 C.3    52  MET52       0.0692
     75  N         62.0750   66.2100  125.7530 N.am   53  LYS53      -0.1980
     76  CA        62.9240   66.5840  124.6240 C.3    53  LYS53       0.1596
     77  C         63.1990   68.0820  124.6070 C.2    53  LYS53       0.2287
     78  O         64.2970   68.5160  124.2720 O.2    53  LYS53      -0.2864
     79  CB        62.2800   66.1860  123.2970 C.3    53  LYS53       0.0298
     80  CG        62.1530   64.6910  123.0770 C.3    53  LYS53       0.0038
     81  CD        61.5820   64.4090  121.6920 C.3    53  LYS53       0.0206
     82  CE        61.0370   62.9970  121.6130 C.3    53  LYS53       0.1093
     83  NZ        59.7780   62.9440  120.8280 N.3    53  LYS53      -0.1314
     84  N         63.3340   70.0080  127.2250 N.3    55  ALA55      -0.1231
     85  CA        64.2800   70.2040  128.3130 C.3    55  ALA55       0.1694
     86  C         65.6820   69.8630  127.8380 C.2    55  ALA55       0.2592
     87  O         66.6450   70.5620  128.1560 O.2    55  ALA55      -0.2718
     88  CB        63.9040   69.3250  129.4970 C.3    55  ALA55       0.0304
     89  N         65.7830   68.7850  127.0680 N.am   56  ASP56      -0.1974
     90  CA        67.0540   68.3200  126.5380 C.3    56  ASP56       0.1709
     91  C         67.6700   69.3820  125.6380 C.2    56  ASP56       0.2293
     92  O         68.8490   69.7090  125.7810 O.2    56  ASP56      -0.2864
     93  CB        66.8390   67.0060  125.7760 C.3    56  ASP56       0.1436
     94  CG        68.1280   66.4290  125.2190 C.2    56  ASP56       0.3671
     95  OD1       69.1870   66.5970  125.8520 O.co2  56  ASP56      -0.2456
     96  OD2       68.0780   65.7880  124.1500 O.co2  56  ASP56      -0.2456
     97  N         68.8800   72.2750  127.7890 N.3    59  ILE59      -0.1245
     98  CA        70.1100   71.9310  128.4760 C.3    59  ILE59       0.1561
     99  C         71.2910   72.0350  127.5130 C.2    59  ILE59       0.2260
    100  O         72.2540   72.7580  127.7790 O.2    59  ILE59      -0.2867
    101  CB        70.0190   70.5160  129.0830 C.3    59  ILE59       0.0252
    102  CG1       68.9290   70.4890  130.1540 C.3    59  ILE59       0.0019
    103  CG2       71.3400   70.1270  129.7280 C.3    59  ILE59       0.0019
    104  CD1       68.4410   69.1060  130.4900 C.3    59  ILE59       0.0001
    105  N         68.8220   71.9240  137.1120 N.3    71  LEU71      -0.1245
    106  CA        67.8860   70.8260  137.2780 C.3    71  LEU71       0.1561
    107  C         67.6700   70.5800  138.7580 C.2    71  LEU71       0.2260
    108  O         67.2170   69.5050  139.1540 O.2    71  LEU71      -0.2867
    109  CB        68.4210   69.5570  136.6080 C.3    71  LEU71       0.0270
    110  CG        68.6850   69.6740  135.1050 C.3    71  LEU71       0.0019
    111  CD1       69.0610   68.3130  134.5550 C.3    71  LEU71       0.0001
    112  CD2       67.4460   70.2020  134.3900 C.3    71  LEU71       0.0001
@<TRIPOS>BOND
     1    83    82    1
     2    82    81    1
     3    81    80    1
     4    80    79    1
     5    79    76    1
     6    96    94   ar
     7    78    77    2
     8    65    63    1
     9    77    76    1
    10    76    75    1
    11    94    93    1
    12    94    95   ar
    13    63    64    1
    14    63    60    1
    15    62    61    2
    16    61    60    1
    17    91    92    2
    18    91    90    1
    19    75    69   am
    20    93    90    1
    21    64    66    1
    22    56    54   ar
    23    56    57   ar
    24    54    52   ar
    25    60    59    1
    26    90    89    1
    27    49    50    2
    28    49    48    1
    29    69    70    2
    30    69    68    1
    31    89    86   am
    32    84    85    1
    33    58    57    1
    34    57    55   ar
    35    99   100    2
    36    99    98    1
    37    52    51    1
    38    52    53   ar
    39    51    48    1
    40    97    98    1
    41    67    68    1
    42    86    87    2
    43    86    85    1
    44    48    47    1
    45    68    71    1
    46    71    72    1
    47    85    88    1
    48    98   101    1
    49    55    53   ar
    50   101   103    1
    51   101   102    1
    52    72    73    1
    53    73    74    1
    54   102   104    1
    55    45    44    1
    56    46    44    1
    57    14    16    1
    58    14    13    1
    59    44    43    2
    60    33    31   ar
    61    33    35   ar
    62    31    30   ar
    63    10    13    1
    64    10     9    1
    65    10    11    1
    66    13    15    1
    67    43    42    1
    68    35    34   ar
    69    25    26    1
    70     1     2    1
    71    42    41    1
    72    26    29    1
    73    26    27    1
    74    12    11    2
    75    30    29    1
    76    30    32   ar
    77    11    17   am
    78    36    37    1
    79     8     6    1
    80     2     3    1
    81     2     5    1
    82    28    27    2
    83   112   110    1
    84    34    32   ar
    85   111   110    1
    86     6     5    1
    87     6     7    1
    88    37    38    1
    89    37    40    1
    90    41    40    1
    91    17    18    1
    92     3     4    2
    93   110   109    1
    94    38    39    2
    95    18    19    1
    96    18    21    1
    97    19    20    2
    98   109   106    1
    99    23    22    2
   100   105   106    1
   101   106   107    1
   102    21    22    1
   103    22    24   am
   104   107   108    2
