@<TRIPOS>MOLECULE
tmp/1sojH00.pdb
 142 139 0 0 0
SMALL
GASTEIGER

@<TRIPOS>ATOM
      1  N         73.8120  -11.2010  121.8610 N.3    81  TYR81      -0.1227
      2  CA        73.9070  -11.8120  120.5370 C.3    81  TYR81       0.1736
      3  C         73.4020  -10.9900  119.3510 C.2    81  TYR81       0.2595
      4  O         74.1590  -10.6790  118.4210 O.2    81  TYR81      -0.2718
      5  CB        73.1910  -13.1590  120.5380 C.3    81  TYR81       0.0548
      6  CG        73.3880  -13.9300  119.2570 C.ar   81  TYR81      -0.0200
      7  CD1       74.6490  -14.3690  118.8770 C.ar   81  TYR81      -0.0009
      8  CD2       72.3120  -14.2270  118.4260 C.ar   81  TYR81      -0.0009
      9  CE1       74.8340  -15.0910  117.7050 C.ar   81  TYR81       0.0417
     10  CE2       72.4870  -14.9500  117.2490 C.ar   81  TYR81       0.0417
     11  CZ        73.7490  -15.3790  116.9010 C.ar   81  TYR81       0.1957
     12  OH        73.9280  -16.1320  115.7620 O.3    81  TYR81      -0.2866
     13  N         72.1150  -10.6660  119.3790 N.am   82  HIS82      -0.1975
     14  CA        71.4760   -9.9060  118.3120 C.3    82  HIS82       0.1656
     15  C         71.8910   -8.4430  118.3130 C.2    82  HIS82       0.2291
     16  O         71.0870   -7.5570  118.5860 O.2    82  HIS82      -0.2864
     17  CB        69.9630  -10.0520  118.4610 C.3    82  HIS82       0.0771
     18  CG        69.4890  -11.4580  118.2760 C.ar   82  HIS82       0.0820
     19  ND1       69.5790  -12.1160  117.0680 N.ar   82  HIS82      -0.2267
     20  CD2       68.9890  -12.3580  119.1560 C.ar   82  HIS82       0.1154
     21  CE1       69.1600  -13.3610  117.2120 C.ar   82  HIS82       0.1986
     22  NE2       68.7980  -13.5340  118.4700 N.ar   82  HIS82      -0.2212
     23  N         62.7300  -14.0790  122.2660 N.3   165  THR165     -0.1218
     24  CA        62.2130  -14.8310  121.1220 C.3   165  THR165      0.1862
     25  C         60.8010  -14.4040  120.7670 C.2   165  THR165      0.2287
     26  O         60.1180  -13.7420  121.5540 O.2   165  THR165     -0.2866
     27  CB        62.1680  -16.3480  121.3890 C.3   165  THR165      0.1770
     28  OG1       61.2320  -16.6210  122.4400 O.3   165  THR165     -0.2211
     29  CG2       63.5360  -16.8630  121.7710 C.3   165  THR165      0.0375
     30  N         62.5750  -18.3000  112.0390 N.3   231  LEU231     -0.1245
     31  CA        62.7560  -19.7440  112.1010 C.3   231  LEU231      0.1561
     32  C         61.4750  -20.5890  112.1220 C.2   231  LEU231      0.2260
     33  O         61.5210  -21.7730  111.8050 O.2   231  LEU231     -0.2867
     34  CB        63.6400  -20.0930  113.2980 C.3   231  LEU231      0.0270
     35  CG        65.0920  -19.6400  113.1160 C.3   231  LEU231      0.0019
     36  CD1       65.8150  -19.7180  114.4550 C.3   231  LEU231      0.0001
     37  CD2       65.7760  -20.5000  112.0510 C.3   231  LEU231      0.0001
     38  N         72.3280  -16.3640  108.4370 N.3   273  ASP273     -0.1225
     39  CA        71.8310  -15.9260  109.7360 C.3   273  ASP273      0.1805
     40  C         72.2150  -16.9280  110.8100 C.2   273  ASP273      0.2597
     41  O         72.3290  -16.5810  111.9960 O.2   273  ASP273     -0.2718
     42  CB        70.3040  -15.7310  109.6830 C.3   273  ASP273      0.1424
     43  CG        69.7560  -14.9310  110.8720 C.2   273  ASP273      0.3668
     44  OD1       70.5050  -14.1520  111.4990 O.co2 273  ASP273     -0.2456
     45  OD2       68.5480  -15.0830  111.1740 O.co2 273  ASP273     -0.2456
     46  N         72.4460  -18.1730  110.4100 N.am  274  ILE274     -0.1980
     47  CA        72.8260  -19.1890  111.3900 C.3   274  ILE274      0.1595
     48  C         74.1400  -19.8850  111.0300 C.2   274  ILE274      0.2287
     49  O         74.3010  -21.0860  111.2560 O.2   274  ILE274     -0.2864
     50  CB        71.6940  -20.2230  111.5460 C.3   274  ILE274      0.0276
     51  CG1       71.4480  -20.9550  110.2300 C.3   274  ILE274      0.0022
     52  CG2       70.4070  -19.5190  111.9480 C.3   274  ILE274      0.0022
     53  CD1       70.3180  -21.9780  110.3060 C.3   274  ILE274      0.0001
     54  N         76.8430  -19.7700  112.4770 N.3   276  GLY276     -0.1210
     55  CA        77.6170  -20.1690  113.6510 C.3   276  GLY276      0.1940
     56  C         78.3300  -21.5200  113.5940 C.2   276  GLY276      0.2453
     57  O         79.5570  -21.5820  113.4070 O.2   276  GLY276     -0.2732
     58  N         77.5940  -22.6260  113.7630 N.am  277  PRO277     -0.2728
     59  CA        78.2120  -23.9520  113.7200 C.3   277  PRO277      0.1401
     60  C         78.7990  -24.3740  112.3750 C.2   277  PRO277      0.2269
     61  O         79.0870  -25.5480  112.1600 O.2   277  PRO277     -0.2865
     62  CB        77.0780  -24.8780  114.1780 C.3   277  PRO277      0.0296
     63  CG        75.8420  -24.1440  113.7710 C.3   277  PRO277      0.0237
     64  CD        76.1750  -22.7200  114.1460 C.3   277  PRO277      0.0939
     65  N         82.7730  -20.5060  116.1460 N.3   284  HIS284     -0.1241
     66  CA        81.5560  -21.1980  116.5680 C.3   284  HIS284      0.1621
     67  C         81.2550  -21.0150  118.0610 C.2   284  HIS284      0.2264
     68  O         80.1480  -20.6240  118.4480 O.2   284  HIS284     -0.2867
     69  CB        81.6560  -22.6910  116.2400 C.3   284  HIS284      0.0745
     70  CG        80.5320  -23.5040  116.8010 C.ar  284  HIS284      0.0817
     71  ND1       79.2850  -22.9740  117.0520 N.ar  284  HIS284     -0.2268
     72  CD2       80.4540  -24.8180  117.1220 C.ar  284  HIS284      0.1154
     73  CE1       78.4850  -23.9270  117.5000 C.ar  284  HIS284      0.1986
     74  NE2       79.1690  -25.0560  117.5500 N.ar  284  HIS284     -0.2212
     75  N         80.2960  -17.4350  119.3020 N.3   287  TRP287     -0.1227
     76  CA        78.9010  -17.1100  118.9680 C.3   287  TRP287      0.1737
     77  C         77.9760  -17.8400  119.9390 C.2   287  TRP287      0.2596
     78  O         77.0380  -17.2560  120.4950 O.2   287  TRP287     -0.2718
     79  CB        78.5550  -17.5330  117.5170 C.3   287  TRP287      0.0564
     80  CG        79.0170  -16.5530  116.4440 C.ar  287  TRP287      0.0003
     81  CD1       79.8190  -16.8240  115.3600 C.ar  287  TRP287      0.0946
     82  CD2       78.8170  -15.1270  116.4430 C.ar  287  TRP287      0.0152
     83  NE1       80.1440  -15.6560  114.7050 N.ar  287  TRP287     -0.2442
     84  CE2       79.5460  -14.6010  115.3460 C.ar  287  TRP287      0.0810
     85  CE3       78.0990  -14.2400  117.2700 C.ar  287  TRP287      0.0012
     86  CZ2       79.5790  -13.2280  115.0580 C.ar  287  TRP287      0.0191
     87  CZ3       78.1350  -12.8770  116.9820 C.ar  287  TRP287      0.0001
     88  CH2       78.8690  -12.3880  115.8880 C.ar  287  TRP287      0.0015
     89  N         78.2520  -19.1250  120.1430 N.am  288  THR288     -0.1953
     90  CA        77.4540  -19.9370  121.0580 C.3   288  THR288      0.1897
     91  C         77.3710  -19.2510  122.4120 C.2   288  THR288      0.2313
     92  O         76.3330  -19.2730  123.0750 O.2   288  THR288     -0.2863
     93  CB        78.0820  -21.3160  121.2620 C.3   288  THR288      0.1794
     94  OG1       78.3120  -21.9310  119.9830 O.3   288  THR288     -0.2208
     95  CG2       77.1590  -22.1900  122.1130 C.3   288  THR288      0.0378
     96  N         74.7440  -16.3570  122.3550 N.3   291  ILE291     -0.1245
     97  CA        73.3660  -16.8510  122.2760 C.3   291  ILE291      0.1561
     98  C         72.8430  -17.3330  123.6170 C.2   291  ILE291      0.2260
     99  O         71.7690  -16.9230  124.0550 O.2   291  ILE291     -0.2867
    100  CB        73.2620  -17.9890  121.2800 C.3   291  ILE291      0.0252
    101  CG1       73.8610  -17.5340  119.9550 C.3   291  ILE291      0.0019
    102  CG2       71.8050  -18.3970  121.0980 C.3   291  ILE291      0.0019
    103  CD1       74.3570  -18.6660  119.0960 C.3   291  ILE291      0.0001
    104  N         69.8980  -16.0980  125.9260 N.3   295  PHE295     -0.1241
    105  CA        68.8250  -17.0220  126.2830 C.3   295  PHE295      0.1605
    106  C         68.5610  -16.9780  127.7840 C.2   295  PHE295      0.2264
    107  O         67.4110  -16.9940  128.2240 O.2   295  PHE295     -0.2867
    108  CB        69.2040  -18.4480  125.8970 C.3   295  PHE295      0.0534
    109  CG        68.8950  -18.8010  124.4760 C.ar  295  PHE295     -0.0203
    110  CD1       69.1020  -20.0970  124.0130 C.ar  295  PHE295     -0.0042
    111  CD2       68.3710  -17.8570  123.6020 C.ar  295  PHE295     -0.0042
    112  CE1       68.7860  -20.4470  122.7010 C.ar  295  PHE295     -0.0003
    113  CE2       68.0520  -18.1980  122.2900 C.ar  295  PHE295     -0.0003
    114  CZ        68.2590  -19.4940  121.8380 C.ar  295  PHE295     -0.0000
    115  N         71.6670  -28.5270  123.5200 N.3   323  LEU323     -0.1231
    116  CA        71.1950  -27.4280  122.6780 C.3   323  LEU323      0.1693
    117  C         71.8830  -27.4460  121.3200 C.2   323  LEU323      0.2591
    118  O         71.2570  -27.7360  120.2960 O.2   323  LEU323     -0.2718
    119  CB        71.4730  -26.0930  123.3710 C.3   323  LEU323      0.0284
    120  CG        71.0130  -24.8450  122.6160 C.3   323  LEU323      0.0019
    121  CD1       69.5210  -24.9520  122.3700 C.3   323  LEU323      0.0001
    122  CD2       71.3320  -23.5940  123.4160 C.3   323  LEU323      0.0001
    123  N         73.1750  -27.1400  121.3200 N.am  324  GLN324     -0.1979
    124  CA        73.9490  -27.1170  120.0840 C.3   324  GLN324      0.1601
    125  C         73.8110  -28.3990  119.2910 C.2   324  GLN324      0.2287
    126  O         73.6780  -28.3670  118.0670 O.2   324  GLN324     -0.2864
    127  CB        75.4310  -26.8700  120.3760 C.3   324  GLN324      0.0394
    128  CG        75.7020  -25.5590  121.0770 C.3   324  GLN324      0.0908
    129  CD        75.0400  -24.3880  120.3820 C.2   324  GLN324      0.2608
    130  OE1       73.8040  -24.2740  120.3720 O.2   324  GLN324     -0.2717
    131  NE2       75.8500  -23.5190  119.7820 N.am  324  GLN324     -0.0878
    132  N         70.4180  -28.3100  117.5860 N.3   327  PHE327     -0.1241
    133  CA        70.3950  -27.2380  116.6020 C.3   327  PHE327      0.1605
    134  C         71.1530  -27.6170  115.3400 C.2   327  PHE327      0.2264
    135  O         70.6580  -27.4470  114.2200 O.2   327  PHE327     -0.2867
    136  CB        71.0080  -25.9690  117.1870 C.3   327  PHE327      0.0534
    137  CG        70.8540  -24.7700  116.3080 C.ar  327  PHE327     -0.0203
    138  CD1       69.5990  -24.1850  116.1250 C.ar  327  PHE327     -0.0042
    139  CD2       71.9530  -24.2350  115.6400 C.ar  327  PHE327     -0.0042
    140  CE1       69.4390  -23.0830  115.2850 C.ar  327  PHE327     -0.0003
    141  CE2       71.8050  -23.1350  114.8000 C.ar  327  PHE327     -0.0003
    142  CZ        70.5470  -22.5570  114.6190 C.ar  327  PHE327     -0.0000
@<TRIPOS>BOND
     1    38    39    1
     2    42    39    1
     3    42    43    1
     4    39    40    1
     5    51    53    1
     6    51    50    1
     7    46    40   am
     8    46    47    1
     9    40    41    2
    10    43    45   ar
    11    43    44   ar
    12    48    49    2
    13    48    47    1
    14    47    50    1
    15    50    52    1
    16    33    32    2
    17    30    31    1
    18    37    35    1
    19    31    32    1
    20    31    34    1
    21    61    60    2
    22    60    59    1
    23    54    55    1
    24    35    34    1
    25    35    36    1
    26    57    56    2
    27    56    55    1
    28    56    58   am
    29    59    58    1
    30    59    62    1
    31    58    64    1
    32    63    64    1
    33    63    62    1
    34   135   134    2
    35   142   141   ar
    36   142   140   ar
    37    83    84   ar
    38    83    81   ar
    39   141   139   ar
    40    86    84   ar
    41    86    88   ar
    42   140   138   ar
    43   134   133    1
    44    84    82   ar
    45    81    80   ar
    46   139   137   ar
    47    12    11    1
    48    88    87   ar
    49   138   137   ar
    50    65    66    1
    51    69    66    1
    52    69    70    1
    53   137   136    1
    54    82    80   ar
    55    82    85   ar
    56    80    79    1
    57    66    67    1
    58   133   136    1
    59   133   132    1
    60    70    71   ar
    61    70    72   ar
    62    11    10   ar
    63    11     9   ar
    64    87    85   ar
    65    71    73   ar
    66    19    21   ar
    67    19    18   ar
    68    72    74   ar
    69    21    22   ar
    70    10     8   ar
    71    73    74   ar
    72    79    76    1
    73     9     7   ar
    74    67    68    2
    75   126   125    2
    76    18    17    1
    77    18    20   ar
    78    14    15    1
    79    14    17    1
    80    14    13    1
    81    15    16    2
    82     4     3    2
    83     8     6   ar
    84    22    20   ar
    85     7     6   ar
    86    76    75    1
    87    76    77    1
    88   103   101    1
    89     6     5    1
    90   125   124    1
    91     3    13   am
    92     3     2    1
    93   131   129   am
    94    77    89   am
    95    77    78    2
    96   101   100    1
    97    94    93    1
    98   124   127    1
    99   124   123    1
   100    89    90    1
   101   118   117    2
   102   130   129    2
   103   127   128    1
   104   129   128    1
   105     2     5    1
   106     2     1    1
   107    25    24    1
   108    25    26    2
   109    90    93    1
   110    90    91    1
   111   102   100    1
   112    24    27    1
   113    24    23    1
   114    93    95    1
   115   100    97    1
   116   123   117   am
   117   117   116    1
   118    27    29    1
   119    27    28    1
   120   114   113   ar
   121   114   112   ar
   122    97    96    1
   123    97    98    1
   124   113   111   ar
   125   121   120    1
   126    91    92    2
   127   120   119    1
   128   120   122    1
   129   116   119    1
   130   116   115    1
   131   112   110   ar
   132   111   109   ar
   133    98    99    2
   134   110   109   ar
   135   109   108    1
   136   108   105    1
   137   104   105    1
   138   105   106    1
   139   106   107    2
