@<TRIPOS>MOLECULE
tmp/1sonA00.pdb
 186 178 0 0 0
SMALL
GASTEIGER

@<TRIPOS>ATOM
      1  N         13.6250   68.9660   67.1190 N.3    11  TRP11      -0.1227
      2  CA        12.6740   69.9710   66.7010 C.3    11  TRP11       0.1737
      3  C         13.4970   71.1000   66.1250 C.2    11  TRP11       0.2596
      4  O         13.1350   72.2510   66.2560 O.2    11  TRP11      -0.2718
      5  CB        11.8870   70.4870   67.9020 C.3    11  TRP11       0.0564
      6  CG        10.8110   69.5700   68.4030 C.ar   11  TRP11       0.0003
      7  CD1        9.5670   69.4320   67.8750 C.ar   11  TRP11       0.0946
      8  CD2       10.8540   68.7040   69.5690 C.ar   11  TRP11       0.0152
      9  NE1        8.8240   68.5490   68.6280 N.ar   11  TRP11      -0.2442
     10  CE2        9.5880   68.0860   69.6740 C.ar   11  TRP11       0.0810
     11  CE3       11.8320   68.4010   70.5360 C.ar   11  TRP11       0.0012
     12  CZ2        9.2670   67.1770   70.7060 C.ar   11  TRP11       0.0191
     13  CZ3       11.5170   67.4920   71.5720 C.ar   11  TRP11       0.0001
     14  CH2       10.2430   66.8950   71.6410 C.ar   11  TRP11       0.0015
     15  N         14.6170   70.7680   65.4990 N.am   12  GLY12      -0.1942
     16  CA        15.4580   71.7940   64.9290 C.3    12  GLY12       0.2014
     17  C         16.5230   72.2950   65.8880 C.2    12  GLY12       0.2638
     18  O         16.6990   71.7710   66.9820 O.2    12  GLY12      -0.2714
     19  N         17.3180   73.2490   65.4340 N.am   13  ASP13      -0.1971
     20  CA        18.3610   73.8540   66.2500 C.3    13  ASP13       0.1709
     21  C         19.4540   72.9700   66.7920 C.2    13  ASP13       0.2293
     22  O         20.1670   73.3660   67.7110 O.2    13  ASP13      -0.2864
     23  CB        17.7390   74.6780   67.3660 C.3    13  ASP13       0.1436
     24  CG        16.9200   75.8060   66.8320 C.2    13  ASP13       0.3671
     25  OD1       17.4790   76.5820   66.0370 O.co2  13  ASP13      -0.2456
     26  OD2       15.7260   75.8970   67.1690 O.co2  13  ASP13      -0.2456
     27  N         13.9860   79.7040   55.6320 N.3    38  ASN38      -0.1225
     28  CA        13.8290   79.7150   57.1100 C.3    38  ASN38       0.1785
     29  C         14.7450   78.7000   57.7990 C.2    38  ASN38       0.2597
     30  O         14.4130   78.1650   58.8440 O.2    38  ASN38      -0.2718
     31  CB        12.3480   79.4810   57.4960 C.3    38  ASN38       0.1169
     32  CG        11.8310   78.0890   57.0780 C.2    38  ASN38       0.2627
     33  OD1       12.5170   77.3300   56.3780 O.2    38  ASN38      -0.2716
     34  ND2       10.5800   77.7740   57.4730 N.am   38  ASN38      -0.0877
     35  N         15.9210   78.4870   57.2450 N.am   39  ALA39      -0.1979
     36  CA        16.8050   77.5250   57.8230 C.3    39  ALA39       0.1597
     37  C         17.5900   77.9730   59.0210 C.2    39  ALA39       0.2287
     38  O         17.6470   77.2620   60.0120 O.2    39  ALA39      -0.2864
     39  CB        17.7420   76.9690   56.8060 C.3    39  ALA39       0.0319
     40  N          0.3130   78.5960   65.6800 N.3   126  ILE126     -0.1231
     41  CA         1.3660   77.6070   65.5370 C.3   126  ILE126      0.1692
     42  C          2.7410   78.0950   65.9940 C.2   126  ILE126      0.2593
     43  O          3.4240   77.4200   66.7650 O.2   126  ILE126     -0.2718
     44  CB         1.3170   77.0630   64.0650 C.3   126  ILE126      0.0266
     45  CG1        0.1260   76.1170   63.9510 C.3   126  ILE126      0.0019
     46  CG2        2.6380   76.4420   63.6040 C.3   126  ILE126      0.0020
     47  CD1       -0.2450   75.7780   62.5620 C.3   126  ILE126      0.0001
     48  N          3.0820   79.3160   65.6030 N.am  127  GLY127     -0.1942
     49  CA         4.3660   79.9010   65.9320 C.3   127  GLY127      0.2014
     50  C          5.2190   79.9810   64.6790 C.2   127  GLY127      0.2640
     51  O          6.4390   79.9030   64.7490 O.2   127  GLY127     -0.2714
     52  N          4.5630   80.1110   63.5290 N.am  128  THR128     -0.1936
     53  CA         5.2020   80.1830   62.2120 C.3   128  THR128      0.2028
     54  C          6.3800   81.1450   62.1450 C.2   128  THR128      0.2642
     55  O          6.3470   82.1820   62.7930 O.2   128  THR128     -0.2714
     56  CB         4.1890   80.6490   61.1850 C.3   128  THR128      0.1808
     57  OG1        3.0710   79.7610   61.1650 O.3   128  THR128     -0.2208
     58  CG2        4.7950   80.6760   59.8390 C.3   128  THR128      0.0379
     59  N          7.3930   80.8350   61.3340 N.am  129  THR129     -0.1950
     60  CA         8.5430   81.7310   61.1950 C.3   129  THR129      0.1897
     61  C          8.1620   82.9920   60.4380 C.2   129  THR129      0.2313
     62  O          8.9950   83.8750   60.2290 O.2   129  THR129     -0.2863
     63  CB         9.7350   81.0860   60.4670 C.3   129  THR129      0.1794
     64  OG1        9.3580   80.7040   59.1390 O.3   129  THR129     -0.2208
     65  CG2       10.2500   79.8750   61.2270 C.3   129  THR129      0.0378
     66  N          7.5660   83.4830   57.2270 N.3   131  ARG131     -0.1245
     67  CA         8.0720   83.6610   55.8710 C.3   131  ARG131      0.1563
     68  C          7.1710   83.1820   54.7230 C.2   131  ARG131      0.2260
     69  O          7.5930   83.1620   53.5660 O.2   131  ARG131     -0.2867
     70  CB         9.4760   83.0910   55.7860 C.3   131  ARG131      0.0307
     71  CG        10.3900   83.8380   56.7420 C.3   131  ARG131      0.0489
     72  CD        11.6100   83.0380   57.1180 C.3   131  ARG131      0.2205
     73  NE        12.5120   83.7120   58.0840 N.pl3 131  ARG131     -0.0865
     74  CZ        13.0140   83.1300   59.2010 C.cat 131  ARG131      0.5346
     75  NH1       12.7010   81.8520   59.4830 N.pl3 131  ARG131      0.1354
     76  NH2       13.7860   83.8270   60.0990 N.pl3 131  ARG131      0.1354
     77  N          5.9690   80.2370   54.1910 N.3   133  ILE133     -0.1231
     78  CA         6.3190   78.8860   53.7900 C.3   133  ILE133      0.1692
     79  C          5.0830   77.9710   53.6480 C.2   133  ILE133      0.2592
     80  O          4.8590   77.3600   52.6010 O.2   133  ILE133     -0.2718
     81  CB         7.3270   78.2760   54.8040 C.3   133  ILE133      0.0266
     82  CG1        8.5580   79.1900   54.9710 C.3   133  ILE133      0.0019
     83  CG2        7.7000   76.8490   54.4190 C.3   133  ILE133      0.0020
     84  CD1        9.5710   79.1540   53.8530 C.3   133  ILE133      0.0001
     85  N          4.2770   77.8880   54.6950 N.am  134  GLY134     -0.1957
     86  CA         3.0860   77.0420   54.6670 C.3   134  GLY134      0.1869
     87  C          2.1670   77.3780   53.5100 C.2   134  GLY134      0.2309
     88  O          1.7370   76.4690   52.7600 O.2   134  GLY134     -0.2863
     89  N         15.0700   72.4590   59.6130 N.3   224  GLN224     -0.1245
     90  CA        14.1030   72.0850   60.6710 C.3   224  GLN224      0.1566
     91  C         14.5250   70.7840   61.3780 C.2   224  GLN224      0.2260
     92  O         15.7050   70.6030   61.6360 O.2   224  GLN224     -0.2867
     93  CB        12.6770   71.9910   60.1430 C.3   224  GLN224      0.0367
     94  CG        12.0560   73.3360   59.8240 C.3   224  GLN224      0.0905
     95  CD        12.4710   73.9050   58.4810 C.2   224  GLN224      0.2608
     96  OE1       12.2900   73.2820   57.4460 O.2   224  GLN224     -0.2717
     97  NE2       12.9840   75.1060   58.4900 N.am  224  GLN224     -0.0878
     98  N          9.0940   67.9530   63.3910 N.3   228  LEU228     -0.1245
     99  CA         8.4010   69.0870   62.7820 C.3   228  LEU228      0.1561
    100  C          7.9340   68.6530   61.3560 C.2   228  LEU228      0.2260
    101  O          7.3910   69.4630   60.5960 O.2   228  LEU228     -0.2867
    102  CB         9.3210   70.3000   62.6740 C.3   228  LEU228      0.0270
    103  CG         9.7660   71.1490   63.8750 C.3   228  LEU228      0.0019
    104  CD1       10.8070   72.2140   63.4320 C.3   228  LEU228      0.0001
    105  CD2        8.5780   71.8110   64.5330 C.3   228  LEU228      0.0001
    106  N          1.4350   71.5220   65.0990 N.3   237  TYR237     -0.1227
    107  CA         2.5670   72.3540   65.4640 C.3   237  TYR237      0.1736
    108  C          3.6750   71.6800   64.7200 C.2   237  TYR237      0.2595
    109  O          4.4230   70.8680   65.2680 O.2   237  TYR237     -0.2718
    110  CB         2.7420   72.3120   66.9670 C.3   237  TYR237      0.0548
    111  CG         1.5270   72.8680   67.6390 C.ar  237  TYR237     -0.0200
    112  CD1        1.2090   74.2160   67.5070 C.ar  237  TYR237     -0.0009
    113  CD2        0.6460   72.0430   68.3150 C.ar  237  TYR237     -0.0009
    114  CE1        0.0440   74.7270   68.0130 C.ar  237  TYR237      0.0417
    115  CE2       -0.5310   72.5430   68.8300 C.ar  237  TYR237      0.0417
    116  CZ        -0.8270   73.8870   68.6650 C.ar  237  TYR237      0.1957
    117  OH        -2.0520   74.3820   69.0780 O.3   237  TYR237     -0.2866
    118  N          3.8090   72.0650   63.4620 N.am  238  VAL238     -0.1966
    119  CA         4.7340   71.3620   62.5980 C.3   238  VAL238      0.1727
    120  C          4.9900   72.2190   61.3700 C.2   238  VAL238      0.2617
    121  O          4.3280   73.2540   61.1900 O.2   238  VAL238     -0.2715
    122  CB         4.0210   70.0350   62.2360 C.3   238  VAL238      0.0290
    123  CG1        3.2110   70.1500   60.9860 C.3   238  VAL238      0.0023
    124  CG2        4.9200   68.9120   62.2680 C.3   238  VAL238      0.0023
    125  N          5.9970   71.8610   60.5760 N.am  239  THR239     -0.1937
    126  CA         6.2710   72.6420   59.3730 C.3   239  THR239      0.2028
    127  C          5.5340   71.9850   58.2040 C.2   239  THR239      0.2642
    128  O          5.0150   70.8630   58.3510 O.2   239  THR239     -0.2714
    129  CB         7.7670   72.8300   59.1210 C.3   239  THR239      0.1808
    130  OG1        7.9410   73.8510   58.1380 O.3   239  THR239     -0.2208
    131  CG2        8.4400   71.5430   58.6540 C.3   239  THR239      0.0379
    132  N          5.4460   72.6590   57.0590 N.am  240  SER240     -0.1949
    133  CA         4.6930   72.0810   55.9400 C.3   240  SER240      0.1924
    134  C          5.3910   71.1520   54.9520 C.2   240  SER240      0.2314
    135  O          4.8010   70.7770   53.9460 O.2   240  SER240     -0.2863
    136  CB         3.9600   73.1690   55.1800 C.3   240  SER240      0.2116
    137  OG         3.0860   73.8680   56.0350 O.3   240  SER240     -0.2180
    138  N         12.8370   73.7830   71.3400 N.3   272  ARG272     -0.1231
    139  CA        11.6740   73.9140   70.4780 C.3   272  ARG272      0.1694
    140  C         11.4110   75.4280   70.4000 C.2   272  ARG272      0.2592
    141  O         11.7790   76.1410   71.3190 O.2   272  ARG272     -0.2718
    142  CB        10.4790   73.1880   71.0960 C.3   272  ARG272      0.0321
    143  CG         9.3190   73.0000   70.1600 C.3   272  ARG272      0.0489
    144  CD         8.1510   72.3900   70.8490 C.3   272  ARG272      0.2205
    145  NE         7.5400   71.3060   70.0780 N.pl3 272  ARG272     -0.0865
    146  CZ         6.9110   71.4360   68.9130 C.cat 272  ARG272      0.5346
    147  NH1        6.7820   72.6150   68.3280 N.pl3 272  ARG272      0.1354
    148  NH2        6.4140   70.3730   68.3200 N.pl3 272  ARG272      0.1354
    149  N         10.9090   75.9240   69.2710 N.am  273  VAL273     -0.1966
    150  CA        10.5840   77.3400   69.0950 C.3   273  VAL273      0.1727
    151  C          9.1680   77.3010   68.5600 C.2   273  VAL273      0.2617
    152  O          8.9010   76.6170   67.5810 O.2   273  VAL273     -0.2715
    153  CB        11.4070   78.0370   68.0020 C.3   273  VAL273      0.0290
    154  CG1       11.5610   79.5080   68.3160 C.3   273  VAL273      0.0023
    155  CG2       12.7230   77.3740   67.7940 C.3   273  VAL273      0.0023
    156  N          8.2590   78.0390   69.1650 N.am  274  GLY274     -0.1940
    157  CA         6.9030   78.0020   68.6790 C.3   274  GLY274      0.2014
    158  C          6.1210   77.1260   69.6230 C.2   274  GLY274      0.2638
    159  O          6.6560   76.6330   70.6180 O.2   274  GLY274     -0.2714
    160  N          4.8530   76.9280   69.3160 N.am  275  ALA275     -0.1977
    161  CA         3.9640   76.1530   70.1560 C.3   275  ALA275      0.1597
    162  C          4.1520   74.6590   69.9950 C.2   275  ALA275      0.2287
    163  O          4.9320   74.2360   69.1700 O.2   275  ALA275     -0.2864
    164  CB         2.5640   76.5320   69.8130 C.3   275  ALA275      0.0319
    165  N         10.9180   84.2450   69.0550 N.3   303  ARG303     -0.1245
    166  CA        11.9540   83.3580   68.5550 C.3   303  ARG303      0.1563
    167  C         13.0320   83.0070   69.5840 C.2   303  ARG303      0.2260
    168  O         14.1640   82.6730   69.2360 O.2   303  ARG303     -0.2867
    169  CB        12.5740   83.9080   67.2740 C.3   303  ARG303      0.0307
    170  CG        11.5760   84.1910   66.1530 C.3   303  ARG303      0.0489
    171  CD        10.3490   83.2860   66.1970 C.3   303  ARG303      0.2205
    172  NE        10.5400   81.9840   65.5690 N.pl3 303  ARG303     -0.0865
    173  CZ         9.5570   81.1040   65.4210 C.cat 303  ARG303      0.5346
    174  NH1        8.3420   81.4110   65.8620 N.pl3 303  ARG303      0.1354
    175  NH2        9.7860   79.9370   64.8390 N.pl3 303  ARG303      0.1354
    176  N         14.2520   80.4370   72.2220 N.3   305  ARG305     -0.1245
    177  CA        14.0370   79.0050   72.3400 C.3   305  ARG305      0.1563
    178  C         13.7080   78.3810   73.6930 C.2   305  ARG305      0.2260
    179  O         14.3340   78.7090   74.6920 O.2   305  ARG305     -0.2867
    180  CB        15.2120   78.2760   71.7090 C.3   305  ARG305      0.0307
    181  CG        14.9080   77.7520   70.3460 C.3   305  ARG305      0.0489
    182  CD        15.8170   78.3190   69.3110 C.3   305  ARG305      0.2205
    183  NE        15.3510   79.5860   68.7550 N.pl3 305  ARG305     -0.0865
    184  CZ        15.1830   79.8050   67.4520 C.cat 305  ARG305      0.5346
    185  NH1       15.4080   78.8410   66.5720 N.pl3 305  ARG305      0.1354
    186  NH2       14.9220   81.0230   67.0050 N.pl3 305  ARG305      0.1354
@<TRIPOS>BOND
     1    80    79    2
     2    88    87    2
     3    87    86    1
     4    69    68    2
     5    79    78    1
     6    79    85   am
     7    78    77    1
     8    78    81    1
     9    84    82    1
    10   135   134    2
    11    83    81    1
    12    86    85    1
    13    68    67    1
    14    81    82    1
    15   134   133    1
    16   136   133    1
    17   136   137    1
    18    27    28    1
    19    70    67    1
    20    70    71    1
    21    67    66    1
    22   133   132    1
    23    33    32    2
    24    71    72    1
    25    39    36    1
    26   132   127   am
    27    32    34   am
    28    32    31    1
    29    28    31    1
    30    28    29    1
    31    72    73    1
    32    35    29   am
    33    35    36    1
    34    96    95    2
    35    29    30    2
    36    36    37    1
    37    73    74    2
    38   130   129    1
    39   127   128    2
    40   127   126    1
    41    95    97   am
    42    95    94    1
    43   131   129    1
    44    37    38    2
    45   129   126    1
    46    64    63    1
    47    74    75    1
    48    74    76    1
    49   126   125    1
    50    89    90    1
    51    94    93    1
    52    58    56    1
    53    93    90    1
    54    62    61    2
    55    61    60    1
    56    63    60    1
    57    63    65    1
    58   125   120   am
    59   101   100    2
    60    90    91    1
    61   123   122    1
    62    57    56    1
    63    56    53    1
    64   121   120    2
    65    60    59    1
    66    59    54   am
    67   100    99    1
    68   120   119    1
    69    91    92    2
    70    54    53    1
    71    54    55    2
    72    53    52    1
    73   122   124    1
    74   122   119    1
    75    47    45    1
    76   119   118    1
    77   102    99    1
    78   102   103    1
    79    99    98    1
    80   104   103    1
    81   118   108   am
    82    52    50   am
    83    46    44    1
    84   103   105    1
    85    45    44    1
    86    44    41    1
    87    50    51    2
    88    50    49    1
    89   108   109    2
    90   108   107    1
    91   175   173    1
    92    16    15    1
    93    16    17    1
    94   106   107    1
    95   173   172    2
    96   173   174    1
    97    19    17   am
    98    19    20    1
    99   107   110    1
   100    15     3   am
   101    41    40    1
   102    41    42    1
   103   172   171    1
   104    48    49    1
   105    48    42   am
   106    17    18    2
   107    42    43    2
   108    25    24   ar
   109     3     4    2
   110     3     2    1
   111   170   171    1
   112   170   169    1
   113    20    21    1
   114    20    23    1
   115   185   184    1
   116     2     1    1
   117     2     5    1
   118    21    22    2
   119    24    26   ar
   120    24    23    1
   121   110   111    1
   122   186   184    1
   123   169   166    1
   124   184   183    2
   125   112   111   ar
   126   112   114   ar
   127   152   151    2
   128   111   113   ar
   129   155   153    1
   130     7     6   ar
   131     7     9   ar
   132     5     6    1
   133   153   154    1
   134   153   150    1
   135   114   116   ar
   136   113   115   ar
   137   148   146    1
   138   147   146    1
   139     6     8   ar
   140   166   165    1
   141   166   167    1
   142   151   150    1
   143   151   156   am
   144     9    10   ar
   145   116   115   ar
   146   116   117    1
   147   157   156    1
   148   157   158    1
   149   183   182    1
   150   146   145    2
   151   150   149    1
   152   163   162    2
   153   168   167    2
   154   149   140   am
   155   182   181    1
   156   160   158   am
   157   160   161    1
   158     8    10   ar
   159     8    11   ar
   160   158   159    2
   161    10    12   ar
   162   164   161    1
   163   162   161    1
   164   145   144    1
   165   143   144    1
   166   143   142    1
   167   181   180    1
   168   140   139    1
   169   140   141    2
   170   139   142    1
   171   139   138    1
   172    11    13   ar
   173    12    14   ar
   174    13    14   ar
   175   180   177    1
   176   176   177    1
   177   177   178    1
   178   178   179    2
