@<TRIPOS>MOLECULE
tmp/1soxA01.pdb
 191 187 0 0 0
SMALL
GASTEIGER

@<TRIPOS>ATOM
      1  N         21.4890  124.7130   37.9190 N.3    22  VAL22      -0.1245
      2  CA        21.0140  123.9690   36.7540 C.3    22  VAL22       0.1561
      3  C         21.0120  124.9070   35.5530 C.2    22  VAL22       0.2260
      4  O         21.1120  126.1330   35.7050 O.2    22  VAL22      -0.2867
      5  CB        19.6210  123.3530   36.9350 C.3    22  VAL22       0.0252
      6  CG1       19.5790  122.2820   38.0140 C.3    22  VAL22       0.0019
      7  CG2       18.6250  124.4720   37.2650 C.3    22  VAL22       0.0019
      8  N         19.0050  127.1790   42.0260 N.3    31  VAL31      -0.1245
      9  CA        17.7010  126.8120   42.5640 C.3    31  VAL31       0.1561
     10  C         17.7520  126.1900   43.9440 C.2    31  VAL31       0.2260
     11  O         16.8130  125.5230   44.3930 O.2    31  VAL31      -0.2867
     12  CB        16.9810  125.8430   41.5890 C.3    31  VAL31       0.0252
     13  CG1       16.8340  126.4860   40.2140 C.3    31  VAL31       0.0019
     14  CG2       17.7340  124.5270   41.4730 C.3    31  VAL31       0.0019
     15  N         14.7780  126.9720   45.8980 N.3    34  PHE34      -0.1241
     16  CA        13.5600  126.4860   45.2810 C.3    34  PHE34       0.1605
     17  C         13.2650  125.0190   45.5380 C.2    34  PHE34       0.2264
     18  O         12.0990  124.6170   45.5910 O.2    34  PHE34      -0.2867
     19  CB        13.6040  126.7060   43.7610 C.3    34  PHE34       0.0534
     20  CG        12.3460  126.2080   43.0970 C.ar   34  PHE34      -0.0203
     21  CD1       11.1460  126.8890   43.2330 C.ar   34  PHE34      -0.0042
     22  CD2       12.3730  125.0380   42.3640 C.ar   34  PHE34      -0.0042
     23  CE1       10.0000  126.4120   42.6220 C.ar   34  PHE34      -0.0003
     24  CE2       11.2300  124.5550   41.7560 C.ar   34  PHE34      -0.0003
     25  CZ        10.0370  125.2410   41.8850 C.ar   34  PHE34      -0.0000
     26  N          9.4360  122.9830   45.3680 N.3    38  HIS38      -0.1227
     27  CA         9.0730  122.1600   44.2290 C.3    38  HIS38       0.1737
     28  C          7.9530  121.1770   44.5120 C.2    38  HIS38       0.2438
     29  O          8.0600  120.3020   45.3670 O.2    38  HIS38      -0.2733
     30  CB        10.2960  121.3390   43.7720 C.3    38  HIS38       0.0758
     31  CG        10.0510  120.6530   42.4640 C.ar   38  HIS38       0.0818
     32  ND1        9.9570  119.2870   42.3370 N.ar   38  HIS38      -0.2268
     33  CD2        9.8810  121.1630   41.2240 C.ar   38  HIS38       0.1154
     34  CE1        9.7310  118.9860   41.0690 C.ar   38  HIS38       0.1986
     35  NE2        9.6830  120.1070   40.3560 N.ar   38  HIS38      -0.2212
     36  N          6.9140  121.2380   43.6950 N.am   39  PRO39      -0.2718
     37  CA         5.7760  120.3420   43.7820 C.3    39  PRO39       0.1535
     38  C          6.2570  118.9050   43.7170 C.2    39  PRO39       0.2599
     39  O          7.1290  118.5770   42.9020 O.2    39  PRO39      -0.2715
     40  CB         4.8510  120.6930   42.6040 C.3    39  PRO39       0.0310
     41  CG         5.2620  122.1260   42.3300 C.3    39  PRO39       0.0237
     42  CD         6.7450  122.2320   42.6340 C.3    39  PRO39       0.0939
     43  N          5.7470  118.0450   44.5920 N.am   40  GLY40      -0.1955
     44  CA         6.1190  116.6420   44.6220 C.3    40  GLY40       0.1869
     45  C          7.4020  116.3230   45.3700 C.2    40  GLY40       0.2309
     46  O          7.8550  115.1680   45.3590 O.2    40  GLY40      -0.2863
     47  N         12.9970  114.3200   42.7250 N.3    44  LYS44      -0.1231
     48  CA        13.1870  114.3880   41.2800 C.3    44  LYS44       0.1693
     49  C         13.9740  115.5990   40.8280 C.2    44  LYS44       0.2591
     50  O         14.9420  115.4720   40.0710 O.2    44  LYS44      -0.2718
     51  CB        11.8220  114.3750   40.5730 C.3    44  LYS44       0.0285
     52  CG        10.9700  113.2050   41.0450 C.3    44  LYS44       0.0035
     53  CD        11.4240  111.9210   40.3760 C.3    44  LYS44       0.0206
     54  CE        10.2510  111.1960   39.7320 C.3    44  LYS44       0.1093
     55  NZ         9.8610  109.9840   40.5000 N.3    44  LYS44      -0.1314
     56  N         13.5990  116.7920   41.2960 N.am   45  ILE45      -0.1980
     57  CA        14.3160  117.9980   40.8920 C.3    45  ILE45       0.1595
     58  C         15.8040  117.9430   41.1840 C.2    45  ILE45       0.2287
     59  O         16.6290  118.3740   40.3660 O.2    45  ILE45      -0.2864
     60  CB        13.7110  119.2630   41.5250 C.3    45  ILE45       0.0276
     61  CG1       14.5390  120.4780   41.1060 C.3    45  ILE45       0.0022
     62  CG2       13.6030  119.1430   43.0330 C.3    45  ILE45       0.0022
     63  CD1       13.7610  121.7800   41.1630 C.3    45  ILE45       0.0001
     64  N         17.7240  115.5390   40.8530 N.3    47  LEU47      -0.1231
     65  CA        18.3680  114.7070   39.8540 C.3    47  LEU47       0.1693
     66  C         19.0440  115.5440   38.7810 C.2    47  LEU47       0.2591
     67  O         19.9530  115.0680   38.1010 O.2    47  LEU47      -0.2718
     68  CB        17.3590  113.7770   39.1960 C.3    47  LEU47       0.0284
     69  CG        17.2400  112.3290   39.6300 C.3    47  LEU47       0.0019
     70  CD1       17.6170  112.0690   41.0750 C.3    47  LEU47       0.0001
     71  CD2       15.8180  111.8300   39.3560 C.3    47  LEU47       0.0001
     72  N         18.6390  116.7920   38.5870 N.am   48  ALA48      -0.1980
     73  CA        19.2170  117.6760   37.6070 C.3    48  ALA48       0.1597
     74  C         20.4280  118.4530   38.1270 C.2    48  ALA48       0.2287
     75  O         21.0260  119.1960   37.3520 O.2    48  ALA48      -0.2864
     76  CB        18.1410  118.6850   37.1700 C.3    48  ALA48       0.0319
     77  N         18.3950  121.1760   32.3150 N.3    53  LEU53      -0.1245
     78  CA        17.0130  120.7890   32.6080 C.3    53  LEU53       0.1561
     79  C         16.3450  120.1290   31.4150 C.2    53  LEU53       0.2260
     80  O         15.3770  119.3640   31.5310 O.2    53  LEU53      -0.2867
     81  CB        16.2570  122.0550   33.0340 C.3    53  LEU53       0.0270
     82  CG        16.6220  122.6130   34.4080 C.3    53  LEU53       0.0019
     83  CD1       15.9900  123.9700   34.6580 C.3    53  LEU53       0.0001
     84  CD2       16.2120  121.6280   35.5030 C.3    53  LEU53       0.0001
     85  N         14.8710  116.5240   31.4150 N.3    56  PHE56      -0.1227
     86  CA        13.7580  116.3980   32.3610 C.3    56  PHE56       0.1736
     87  C         12.5390  117.1460   31.8480 C.2    56  PHE56       0.2595
     88  O         11.4020  116.6820   32.0630 O.2    56  PHE56      -0.2718
     89  CB        14.1390  116.8740   33.7730 C.3    56  PHE56       0.0547
     90  CG        15.4820  116.3100   34.1810 C.ar   56  PHE56      -0.0202
     91  CD1       15.6100  114.9770   34.5290 C.ar   56  PHE56      -0.0042
     92  CD2       16.6030  117.1090   34.1650 C.ar   56  PHE56      -0.0042
     93  CE1       16.8450  114.4550   34.8700 C.ar   56  PHE56      -0.0003
     94  CE2       17.8360  116.5900   34.5040 C.ar   56  PHE56      -0.0003
     95  CZ        17.9760  115.2630   34.8600 C.ar   56  PHE56      -0.0000
     96  N         12.7320  118.2590   31.1510 N.am   57  TRP57      -0.1976
     97  CA        11.6390  118.9850   30.5190 C.3    57  TRP57       0.1640
     98  C         10.9840  118.1100   29.4380 C.2    57  TRP57       0.2290
     99  O          9.8010  118.2660   29.1020 O.2    57  TRP57      -0.2864
    100  CB        12.1040  120.2500   29.8180 C.3    57  TRP57       0.0576
    101  CG        12.0140  121.5410   30.5460 C.ar   57  TRP57       0.0006
    102  CD1       11.7710  122.7650   29.9840 C.ar   57  TRP57       0.0946
    103  CD2       12.1930  121.7780   31.9480 C.ar   57  TRP57       0.0152
    104  NE1       11.7730  123.7430   30.9490 N.ar   57  TRP57      -0.2442
    105  CE2       12.0290  123.1580   32.1640 C.ar   57  TRP57       0.0810
    106  CE3       12.4510  120.9390   33.0380 C.ar   57  TRP57       0.0012
    107  CZ2       12.1260  123.7460   33.4280 C.ar   57  TRP57       0.0191
    108  CZ3       12.5470  121.5130   34.2930 C.ar   57  TRP57       0.0001
    109  CH2       12.3950  122.8950   34.4680 C.ar   57  TRP57       0.0015
    110  N          8.7250  115.6200   31.4360 N.3    60  TYR60      -0.1241
    111  CA         7.5730  116.3090   32.0210 C.3    60  TYR60       0.1605
    112  C          7.3630  117.6400   31.3320 C.2    60  TYR60       0.2264
    113  O          7.8130  118.6990   31.7780 O.2    60  TYR60      -0.2867
    114  CB         7.7970  116.4850   33.5280 C.3    60  TYR60       0.0534
    115  CG         8.1510  115.1990   34.2500 C.ar   60  TYR60      -0.0201
    116  CD1        7.1870  114.2370   34.5120 C.ar   60  TYR60      -0.0009
    117  CD2        9.4630  114.9190   34.6270 C.ar   60  TYR60      -0.0009
    118  CE1        7.5010  113.0560   35.1590 C.ar   60  TYR60       0.0417
    119  CE2        9.7830  113.7400   35.2720 C.ar   60  TYR60       0.0417
    120  CZ         8.8080  112.8100   35.5360 C.ar   60  TYR60       0.1957
    121  OH         9.1110  111.6260   36.1760 O.3    60  TYR60      -0.2866
    122  N          5.0860  119.8240   31.1540 N.3    62  VAL62      -0.1231
    123  CA         4.4200  120.9410   31.8170 C.3    62  VAL62       0.1692
    124  C          5.4130  122.0440   32.1440 C.2    62  VAL62       0.2592
    125  O          5.1200  123.2440   32.1680 O.2    62  VAL62      -0.2718
    126  CB         3.7020  120.4630   33.0900 C.3    62  VAL62       0.0266
    127  CG1        4.6950  120.0220   34.1540 C.3    62  VAL62       0.0020
    128  CG2        2.8200  121.5970   33.6170 C.3    62  VAL62       0.0020
    129  N          6.6920  121.6990   32.3310 N.am   63  HIS63      -0.1976
    130  CA         7.7260  122.6740   32.6260 C.3    63  HIS63       0.1656
    131  C          8.0250  123.6080   31.4660 C.2    63  HIS63       0.2291
    132  O          8.6430  124.6570   31.6890 O.2    63  HIS63      -0.2864
    133  CB         9.0260  121.9860   33.0320 C.3    63  HIS63       0.0771
    134  CG         8.9340  121.1510   34.2650 C.ar   63  HIS63       0.0820
    135  ND1        8.6500  119.8120   34.2300 N.ar   63  HIS63      -0.2267
    136  CD2        9.1280  121.4670   35.5720 C.ar   63  HIS63       0.1154
    137  CE1        8.6590  119.3370   35.4630 C.ar   63  HIS63       0.1986
    138  NE2        8.9570  120.3190   36.3130 N.ar   63  HIS63      -0.2212
    139  N          4.0380  129.6480   32.7260 N.3    67  HIS67      -0.1226
    140  CA         4.0670  129.8540   34.1690 C.3    67  HIS67       0.1752
    141  C          5.2590  129.1660   34.8240 C.2    67  HIS67       0.2595
    142  O          5.7550  129.6640   35.8340 O.2    67  HIS67      -0.2718
    143  CB         2.7680  129.4060   34.8310 C.3    67  HIS67       0.0759
    144  CG         2.5330  127.9310   34.8920 C.ar   67  HIS67       0.0818
    145  ND1        2.2760  127.1500   33.7920 N.ar   67  HIS67      -0.2268
    146  CD2        2.5010  127.0970   35.9560 C.ar   67  HIS67       0.1154
    147  CE1        2.0900  125.8990   34.1600 C.ar   67  HIS67       0.1986
    148  NE2        2.2250  125.8410   35.4740 N.ar   67  HIS67      -0.2212
    149  N          5.6870  127.9990   34.3140 N.am   68  VAL68      -0.1980
    150  CA         6.8360  127.3360   34.9370 C.3    68  VAL68       0.1595
    151  C          8.1130  128.0810   34.5630 C.2    68  VAL68       0.2287
    152  O          8.9680  128.3380   35.4040 O.2    68  VAL68      -0.2864
    153  CB         6.9590  125.8570   34.5710 C.3    68  VAL68       0.0276
    154  CG1        8.2100  125.2290   35.1900 C.3    68  VAL68       0.0022
    155  CG2        5.7290  125.0980   35.0520 C.3    68  VAL68       0.0022
    156  N          8.5450  131.1590   36.5600 N.3    71  LEU71      -0.1231
    157  CA         9.0090  130.8400   37.9140 C.3    71  LEU71       0.1693
    158  C         10.5130  130.5840   37.9260 C.2    71  LEU71       0.2591
    159  O         11.2430  131.1290   38.7480 O.2    71  LEU71      -0.2718
    160  CB         8.2170  129.6500   38.4440 C.3    71  LEU71       0.0284
    161  CG         8.6980  128.9960   39.7430 C.3    71  LEU71       0.0019
    162  CD1        8.5170  129.9330   40.9180 C.3    71  LEU71       0.0001
    163  CD2        7.9440  127.6910   39.9660 C.3    71  LEU71       0.0001
    164  N         11.0000  129.7980   36.9730 N.am   72  LEU72      -0.1980
    165  CA        12.4060  129.4770   36.8040 C.3    72  LEU72       0.1596
    166  C         13.2700  130.7160   36.6440 C.2    72  LEU72       0.2287
    167  O         14.2930  130.8300   37.3250 O.2    72  LEU72      -0.2864
    168  CB        12.6200  128.5840   35.5780 C.3    72  LEU72       0.0297
    169  CG        14.0440  128.1730   35.2060 C.3    72  LEU72       0.0022
    170  CD1       14.7210  127.3810   36.3060 C.3    72  LEU72       0.0001
    171  CD2       14.0310  127.3580   33.9170 C.3    72  LEU72       0.0001
    172  N         15.1620  132.5010   39.5380 N.3    75  TYR75      -0.1241
    173  CA        16.4010  131.9530   40.0460 C.3    75  TYR75       0.1605
    174  C         17.6180  132.0760   39.1510 C.2    75  TYR75       0.2264
    175  O         18.6350  131.4450   39.4530 O.2    75  TYR75      -0.2867
    176  CB        16.1300  130.4610   40.3780 C.3    75  TYR75       0.0534
    177  CG        15.0610  130.3650   41.4460 C.ar   75  TYR75      -0.0201
    178  CD1       15.3690  130.5590   42.7890 C.ar   75  TYR75      -0.0009
    179  CD2       13.7370  130.1210   41.1060 C.ar   75  TYR75      -0.0009
    180  CE1       14.3890  130.4800   43.7560 C.ar   75  TYR75       0.0417
    181  CE2       12.7490  130.0360   42.0670 C.ar   75  TYR75       0.0417
    182  CZ        13.0840  130.2270   43.3920 C.ar   75  TYR75       0.1957
    183  OH        12.1020  130.1550   44.3570 O.3    75  TYR75      -0.2866
    184  N         13.2680  107.4690   36.4740 N.3   120  LEU120     -0.1245
    185  CA        12.9460  108.1670   35.2570 C.3   120  LEU120      0.1561
    186  C         12.8150  107.3010   34.0110 C.2   120  LEU120      0.2260
    187  O         12.2320  107.7810   33.0280 O.2   120  LEU120     -0.2867
    188  CB        14.0140  109.2350   34.9980 C.3   120  LEU120      0.0270
    189  CG        14.1800  110.2850   36.0860 C.3   120  LEU120      0.0019
    190  CD1       15.2550  111.2850   35.6630 C.3   120  LEU120      0.0001
    191  CD2       12.8850  111.0180   36.4080 C.3   120  LEU120      0.0001
@<TRIPOS>BOND
     1    99    98    2
     2    98    97    1
     3   100    97    1
     4   100   101    1
     5   102   101   ar
     6   102   104   ar
     7    97    96    1
     8   101   103   ar
     9   104   105   ar
    10    96    87   am
    11   122   123    1
    12   112   113    2
    13   112   111    1
    14    85    86    1
    15    79    80    2
    16    79    78    1
    17   110   111    1
    18   131   132    2
    19   131   130    1
    20   123   124    1
    21   123   126    1
    22    87    88    2
    23    87    86    1
    24   103   105   ar
    25   103   106   ar
    26   111   114    1
    27   124   125    2
    28   124   129   am
    29   105   107   ar
    30    77    78    1
    31   129   130    1
    32    86    89    1
    33    78    81    1
    34   130   133    1
    35   139   140    1
    36   187   186    2
    37   133   134    1
    38    81    82    1
    39   106   108   ar
    40   126   128    1
    41   126   127    1
    42   107   109   ar
    43   114   115    1
    44    89    90    1
    45   145   147   ar
    46   145   144   ar
    47   171   169    1
    48   186   185    1
    49   147   148   ar
    50    92    90   ar
    51    92    94   ar
    52   140   141    1
    53   140   143    1
    54    90    91   ar
    55   135   134   ar
    56   135   137   ar
    57   115   116   ar
    58   115   117   ar
    59   134   136   ar
    60   108   109   ar
    61   149   141   am
    62   149   150    1
    63    82    83    1
    64    82    84    1
    65    94    95   ar
    66   116   118   ar
    67    91    93   ar
    68   151   150    1
    69   151   152    2
    70   153   150    1
    71   153   155    1
    72   153   154    1
    73   117   119   ar
    74   141   142    2
    75   143   144    1
    76    95    93   ar
    77   144   146   ar
    78   188   185    1
    79   188   189    1
    80   118   120   ar
    81   169   168    1
    82   169   170    1
    83   185   184    1
    84   119   120   ar
    85   137   138   ar
    86   148   146   ar
    87   120   121    1
    88     3     4    2
    89     3     2    1
    90   136   138   ar
    91   168   165    1
    92   190   189    1
    93   189   191    1
    94   156   157    1
    95   166   165    1
    96   166   167    2
    97     2     5    1
    98     2     1    1
    99   165   164    1
   100     5     7    1
   101     5     6    1
   102   164   158   am
   103    76    73    1
   104    75    74    2
   105    73    74    1
   106    73    72    1
   107   157   158    1
   108   157   160    1
   109   158   159    2
   110    67    66    2
   111   160   161    1
   112    72    66   am
   113    66    65    1
   114   174   175    2
   115   174   173    1
   116    68    69    1
   117    68    65    1
   118    71    69    1
   119   172   173    1
   120    69    70    1
   121    54    53    1
   122    54    55    1
   123   161   163    1
   124   161   162    1
   125    65    64    1
   126   173   176    1
   127    50    49    2
   128    13    12    1
   129    35    34   ar
   130    35    33   ar
   131    59    58    2
   132    53    52    1
   133   176   177    1
   134    51    52    1
   135    51    48    1
   136    49    48    1
   137    49    56   am
   138    57    58    1
   139    57    56    1
   140    57    60    1
   141    34    32   ar
   142   179   177   ar
   143   179   181   ar
   144    61    63    1
   145    61    60    1
   146    33    31   ar
   147    48    47    1
   148   177   178   ar
   149    14    12    1
   150    60    62    1
   151    12     9    1
   152    24    25   ar
   153    24    22   ar
   154    25    23   ar
   155     8     9    1
   156   181   182   ar
   157    41    40    1
   158    41    42    1
   159    32    31   ar
   160    22    20   ar
   161    31    30    1
   162     9    10    1
   163    40    37    1
   164    23    21   ar
   165    42    36    1
   166   178   180   ar
   167    39    38    2
   168    20    21   ar
   169    20    19    1
   170   182   180   ar
   171   182   183    1
   172    36    37    1
   173    36    28   am
   174    38    37    1
   175    38    43   am
   176    19    16    1
   177    30    27    1
   178    10    11    2
   179    27    28    1
   180    27    26    1
   181    28    29    2
   182    43    44    1
   183    44    45    1
   184    16    17    1
   185    16    15    1
   186    46    45    2
   187    17    18    2
