@<TRIPOS>MOLECULE
tmp/1soxA00.pdb
 171 167 0 0 0
SMALL
GASTEIGER

@<TRIPOS>ATOM
      1  N         19.8170  108.4070   27.8120 N.3   132  PHE132     -0.1227
      2  CA        19.8990  107.0690   27.2130 C.3   132  PHE132      0.1736
      3  C         21.1090  106.3710   27.8250 C.2   132  PHE132      0.2595
      4  O         22.1710  106.9980   27.8860 O.2   132  PHE132     -0.2718
      5  CB        20.0110  107.1920   25.6860 C.3   132  PHE132      0.0547
      6  CG        19.6770  105.9500   24.9170 C.ar  132  PHE132     -0.0202
      7  CD1       20.5430  104.8710   24.8800 C.ar  132  PHE132     -0.0042
      8  CD2       18.4820  105.8750   24.2010 C.ar  132  PHE132     -0.0042
      9  CE1       20.2420  103.7330   24.1640 C.ar  132  PHE132     -0.0003
     10  CE2       18.1930  104.7410   23.4730 C.ar  132  PHE132     -0.0003
     11  CZ        19.0460  103.6520   23.4620 C.ar  132  PHE132     -0.0000
     12  N         20.9600  105.1250   28.2810 N.am  133  PHE133     -0.1962
     13  CA        22.1060  104.4790   28.9100 C.3   133  PHE133      0.1771
     14  C         23.2740  104.4090   27.9190 C.2   133  PHE133      0.2620
     15  O         23.0990  104.2820   26.7030 O.2   133  PHE133     -0.2715
     16  CB        21.7840  103.0960   29.4280 C.3   133  PHE133      0.0574
     17  CG        21.9360  101.9610   28.4670 C.ar  133  PHE133     -0.0200
     18  CD1       20.9660  101.7090   27.5030 C.ar  133  PHE133     -0.0042
     19  CD2       23.0330  101.1180   28.5430 C.ar  133  PHE133     -0.0042
     20  CE1       21.0920  100.6460   26.6300 C.ar  133  PHE133     -0.0003
     21  CE2       23.1660  100.0530   27.6700 C.ar  133  PHE133     -0.0003
     22  CZ        22.1880   99.8080   26.7090 C.ar  133  PHE133     -0.0000
     23  N         24.4740  104.4580   28.5080 N.am  134  THR134     -0.1937
     24  CA        25.6910  104.4440   27.7000 C.3   134  THR134      0.2028
     25  C         26.6130  103.3070   28.1240 C.2   134  THR134      0.2642
     26  O         26.9200  103.1220   29.3120 O.2   134  THR134     -0.2714
     27  CB        26.4370  105.7720   27.8320 C.3   134  THR134      0.1808
     28  OG1       25.5490  106.8380   27.4430 O.3   134  THR134     -0.2208
     29  CG2       27.6610  105.8320   26.9130 C.3   134  THR134      0.0379
     30  N         27.0770  102.5580   27.1350 N.am  135  ARG135     -0.1977
     31  CA        27.9660  101.4290   27.3820 C.3   135  ARG135      0.1597
     32  C         29.1320  101.5330   26.3940 C.2   135  ARG135      0.2287
     33  O         28.9320  101.2870   25.2060 O.2   135  ARG135     -0.2864
     34  CB        27.2270  100.1100   27.2340 C.3   135  ARG135      0.0334
     35  CG        27.8360   98.9070   27.9590 C.3   135  ARG135      0.0492
     36  CD        29.1130   98.4340   27.2800 C.3   135  ARG135      0.2205
     37  NE        29.7300   97.2410   27.8550 N.pl3 135  ARG135     -0.0865
     38  CZ        30.9120   97.2320   28.4830 C.cat 135  ARG135      0.5346
     39  NH1       31.5910   98.3620   28.6370 N.pl3 135  ARG135      0.1354
     40  NH2       31.4500   96.1120   28.9510 N.pl3 135  ARG135      0.1354
     41  N         33.1470  100.3070   25.6200 N.3   137  HIS137     -0.1241
     42  CA        34.2230   99.4320   26.0610 C.3   137  HIS137      0.1621
     43  C         35.5600  100.1820   26.0280 C.2   137  HIS137      0.2264
     44  O         36.5300   99.7470   26.6500 O.2   137  HIS137     -0.2867
     45  CB        34.3540   98.1860   25.1990 C.3   137  HIS137      0.0745
     46  CG        33.2460   97.1910   25.3640 C.ar  137  HIS137      0.0817
     47  ND1       32.0380   97.3040   24.7130 N.ar  137  HIS137     -0.2268
     48  CD2       33.1770   96.0730   26.1220 C.ar  137  HIS137      0.1154
     49  CE1       31.2570   96.2940   25.0820 C.ar  137  HIS137      0.1986
     50  NE2       31.9310   95.5260   25.9190 N.ar  137  HIS137     -0.2212
     51  N         17.1570   99.3150   23.1090 N.3   180  LEU180     -0.1245
     52  CA        18.4580   98.6650   23.1980 C.3   180  LEU180      0.1561
     53  C         18.6600   98.2000   24.6510 C.2   180  LEU180      0.2260
     54  O         18.4880   99.0480   25.5180 O.2   180  LEU180     -0.2867
     55  CB        19.6010   99.6450   22.8690 C.3   180  LEU180      0.0270
     56  CG        19.7090  100.0200   21.3770 C.3   180  LEU180      0.0019
     57  CD1       20.9560  100.8730   21.1330 C.3   180  LEU180      0.0001
     58  CD2       19.7310   98.7840   20.5010 C.3   180  LEU180      0.0001
     59  N         21.3330   96.1500   27.1880 N.3   182  CYS182     -0.1221
     60  CA        22.6450   95.4870   27.3320 C.3   182  CYS182      0.1808
     61  C         22.4870   94.0990   27.8870 C.2   182  CYS182      0.2601
     62  O         21.6310   93.8400   28.7530 O.2   182  CYS182     -0.2717
     63  CB        23.4860   96.3850   28.2540 C.3   182  CYS182      0.0970
     64  SG        25.1480   95.7610   28.5080 S.3   182  CYS182     -0.0800
     65  N         23.3360   93.1330   27.5130 N.am  183  ALA183     -0.1979
     66  CA        23.2850   91.7890   28.0550 C.3   183  ALA183      0.1597
     67  C         23.4610   91.7950   29.5750 C.2   183  ALA183      0.2287
     68  O         23.0230   90.8850   30.2720 O.2   183  ALA183     -0.2864
     69  CB        24.3860   90.8940   27.4750 C.3   183  ALA183      0.0319
     70  N         33.9770   98.8410   14.6120 N.3   239  GLY239     -0.1225
     71  CA        33.8760  100.2110   15.0150 C.3   239  GLY239      0.1811
     72  C         35.2640  100.8870   14.8890 C.2   239  GLY239      0.2280
     73  O         36.2400  100.1900   14.6430 O.2   239  GLY239     -0.2866
     74  N         36.5950  102.4820   17.3830 N.3   241  ASP241     -0.1239
     75  CA        37.2450  102.3910   18.6890 C.3   241  ASP241      0.1674
     76  C         38.0330  101.0920   18.7650 C.2   241  ASP241      0.2266
     77  O         37.5150  100.0220   18.4290 O.2   241  ASP241     -0.2867
     78  CB        36.2340  102.4700   19.8390 C.3   241  ASP241      0.1410
     79  CG        35.0720  101.5030   19.7270 C.2   241  ASP241      0.3668
     80  OD1       34.6770  101.1160   18.6090 O.co2 241  ASP241     -0.2456
     81  OD2       34.5210  101.0860   20.7780 O.co2 241  ASP241     -0.2456
     82  N         36.3470   97.3060   18.2550 N.3   249  TYR249     -0.1241
     83  CA        35.1560   96.6120   18.7710 C.3   249  TYR249      0.1605
     84  C         34.4720   95.9940   17.5510 C.2   249  TYR249      0.2264
     85  O         34.4980   96.6410   16.4950 O.2   249  TYR249     -0.2867
     86  CB        34.2230   97.6000   19.5090 C.3   249  TYR249      0.0534
     87  CG        33.0270   96.8350   20.0280 C.ar  249  TYR249     -0.0201
     88  CD1       33.1000   96.1050   21.2090 C.ar  249  TYR249     -0.0009
     89  CD2       31.8320   96.8080   19.3080 C.ar  249  TYR249     -0.0009
     90  CE1       32.0110   95.3690   21.6580 C.ar  249  TYR249      0.0417
     91  CE2       30.7460   96.0910   19.7780 C.ar  249  TYR249      0.0417
     92  CZ        30.8280   95.3980   20.9520 C.ar  249  TYR249      0.1957
     93  OH        29.7640   94.6340   21.4200 O.3   249  TYR249     -0.2866
     94  N         26.7710  107.7590   21.6170 N.3   280  HIS280     -0.1241
     95  CA        25.9430  106.7530   20.9650 C.3   280  HIS280      0.1621
     96  C         26.3440  106.4470   19.5290 C.2   280  HIS280      0.2264
     97  O         25.5570  105.7940   18.8250 O.2   280  HIS280     -0.2867
     98  CB        24.4550  107.1580   21.0320 C.3   280  HIS280      0.0745
     99  CG        24.1020  107.4140   22.4770 C.ar  280  HIS280      0.0817
    100  ND1       24.0140  106.3820   23.3820 N.ar  280  HIS280     -0.2268
    101  CD2       23.9090  108.5680   23.1400 C.ar  280  HIS280      0.1154
    102  CE1       23.7320  106.9060   24.5720 C.ar  280  HIS280      0.1986
    103  NE2       23.6420  108.2300   24.4480 N.ar  280  HIS280     -0.2212
    104  N         25.9280  104.3120   13.4280 N.3   285  ARG285     -0.1245
    105  CA        25.9880  103.0970   14.2010 C.3   285  ARG285      0.1563
    106  C         25.0450  102.0860   13.5310 C.2   285  ARG285      0.2260
    107  O         24.1470  102.5000   12.8080 O.2   285  ARG285     -0.2867
    108  CB        25.5730  103.2430   15.6700 C.3   285  ARG285      0.0307
    109  CG        24.0700  103.4230   15.8260 C.3   285  ARG285      0.0489
    110  CD        23.5810  103.4600   17.2670 C.3   285  ARG285      0.2205
    111  NE        23.9750  102.2700   18.0240 N.pl3 285  ARG285     -0.0865
    112  CZ        24.0070  102.2500   19.3600 C.cat 285  ARG285      0.5346
    113  NH1       23.6500  103.3350   20.0580 N.pl3 285  ARG285      0.1354
    114  NH2       24.3910  101.1540   19.9800 N.pl3 285  ARG285      0.1354
    115  N         22.1120   94.5840   22.8760 N.3   293  GLY293     -0.1210
    116  CA        22.7770   95.8470   22.5650 C.3   293  GLY293      0.1956
    117  C         24.1910   95.6430   22.0190 C.2   293  GLY293      0.2611
    118  O         24.6430   96.4680   21.2250 O.2   293  GLY293     -0.2717
    119  N         24.8980   94.6000   22.4460 N.am  294  ALA294     -0.1979
    120  CA        26.2830   94.3930   22.0160 C.3   294  ALA294      0.1597
    121  C         26.4570   94.3750   20.5000 C.2   294  ALA294      0.2287
    122  O         27.5540   94.6930   20.0230 O.2   294  ALA294     -0.2864
    123  CB        26.7840   93.0660   22.5690 C.3   294  ALA294      0.0319
    124  N         24.8680   96.1730   18.1890 N.3   296  SER296     -0.1202
    125  CA        24.5980   97.4610   17.5750 C.3   296  SER296      0.2020
    126  C         25.8860   98.2860   17.6360 C.2   296  SER296      0.2619
    127  O         26.0070   99.1650   18.4750 O.2   296  SER296     -0.2717
    128  CB        23.4310   98.2040   18.2500 C.3   296  SER296      0.2103
    129  OG        22.1980   97.4880   18.0080 O.3   296  SER296     -0.2182
    130  N         26.8050   97.9660   16.7450 N.am  297  VAL297     -0.1965
    131  CA        28.1320   98.6150   16.7250 C.3   297  VAL297      0.1727
    132  C         28.1140  100.0850   16.4210 C.2   297  VAL297      0.2616
    133  O         27.5240  100.5250   15.4450 O.2   297  VAL297     -0.2715
    134  CB        29.0250   97.8290   15.7490 C.3   297  VAL297      0.0290
    135  CG1       30.3740   98.4980   15.5850 C.3   297  VAL297      0.0023
    136  CG2       29.1280   96.3810   16.2230 C.3   297  VAL297      0.0023
    137  N         28.7330  100.8950   17.2960 N.am  298  LYS298     -0.1963
    138  CA        28.7810  102.3350   17.1790 C.3   298  LYS298      0.1728
    139  C         30.0470  102.7840   16.4500 C.2   298  LYS298      0.2616
    140  O         30.9470  101.9650   16.2760 O.2   298  LYS298     -0.2715
    141  CB        28.7790  102.9800   18.5810 C.3   298  LYS298      0.0311
    142  CG        27.5990  102.5560   19.4570 C.3   298  LYS298      0.0038
    143  CD        27.5620  103.4010   20.7270 C.3   298  LYS298      0.0206
    144  CE        28.2960  102.7210   21.8770 C.3   298  LYS298      0.1093
    145  NZ        28.0580  103.4670   23.1780 N.3   298  LYS298     -0.1314
    146  N         30.1060  104.0440   16.0150 N.am  299  TRP299     -0.1974
    147  CA        31.2970  104.5340   15.3070 C.3   299  TRP299      0.1640
    148  C         31.6790  103.5640   14.2030 C.2   299  TRP299      0.2290
    149  O         32.8140  103.0860   14.0760 O.2   299  TRP299     -0.2864
    150  CB        32.4680  104.6940   16.3160 C.3   299  TRP299      0.0576
    151  CG        32.0170  105.4710   17.5150 C.ar  299  TRP299      0.0006
    152  CD1       31.6460  106.7800   17.5730 C.ar  299  TRP299      0.0946
    153  CD2       31.8560  104.9470   18.8490 C.ar  299  TRP299      0.0152
    154  NE1       31.2560  107.0990   18.8520 N.ar  299  TRP299     -0.2442
    155  CE2       31.3700  105.9930   19.6430 C.ar  299  TRP299      0.0810
    156  CE3       32.0920  103.7080   19.4350 C.ar  299  TRP299      0.0012
    157  CZ2       31.1070  105.8550   21.0090 C.ar  299  TRP299      0.0191
    158  CZ3       31.7990  103.5530   20.7850 C.ar  299  TRP299      0.0001
    159  CH2       31.3380  104.6250   21.5600 C.ar  299  TRP299      0.0015
    160  N         29.4990   87.5700   26.0310 N.3   319  TYR319     -0.1241
    161  CA        28.0810   87.6330   25.6900 C.3   319  TYR319      0.1605
    162  C         27.4710   86.3190   25.2770 C.2   319  TYR319      0.2264
    163  O         26.7990   86.1890   24.2390 O.2   319  TYR319     -0.2867
    164  CB        27.8650   88.7150   24.6300 C.3   319  TYR319      0.0534
    165  CG        28.3390   90.0800   25.0780 C.ar  319  TYR319     -0.0201
    166  CD1       27.8490   90.6530   26.2450 C.ar  319  TYR319     -0.0009
    167  CD2       29.2980   90.7920   24.3860 C.ar  319  TYR319     -0.0009
    168  CE1       28.2880   91.9000   26.6690 C.ar  319  TYR319      0.0417
    169  CE2       29.7370   92.0330   24.7920 C.ar  319  TYR319      0.0417
    170  CZ        29.2230   92.5900   25.9430 C.ar  319  TYR319      0.1957
    171  OH        29.6530   93.8280   26.4070 O.3   319  TYR319     -0.2866
@<TRIPOS>BOND
     1   107   106    2
     2   104   105    1
     3   106   105    1
     4   149   148    2
     5   105   108    1
     6   148   147    1
     7    70    71    1
     8    73    72    2
     9    72    71    1
    10   147   146    1
    11   147   150    1
    12   133   132    2
    13   135   134    1
    14   108   109    1
    15   134   136    1
    16   134   131    1
    17   109   110    1
    18   146   139   am
    19   140   139    2
    20   150   151    1
    21   132   131    1
    22   132   137   am
    23   139   138    1
    24    85    84    2
    25   131   130    1
    26   130   126   am
    27   138   137    1
    28   138   141    1
    29   110   111    1
    30    74    75    1
    31   151   152   ar
    32   151   153   ar
    33    84    83    1
    34   152   154   ar
    35   125   126    1
    36   125   124    1
    37   125   128    1
    38   126   127    2
    39   129   128    1
    40   111   112    2
    41    82    83    1
    42    77    76    2
    43   141   142    1
    44    80    79   ar
    45    75    76    1
    46    75    78    1
    47    83    86    1
    48    97    96    2
    49   153   156   ar
    50   153   155   ar
    51   154   155   ar
    52    89    91   ar
    53    89    87   ar
    54   112   114    1
    55   112   113    1
    56   156   158   ar
    57   142   143    1
    58    86    87    1
    59    96    95    1
    60   155   157   ar
    61    79    78    1
    62    79    81   ar
    63    91    92   ar
    64   122   121    2
    65    87    88   ar
    66   121   120    1
    67    58    56    1
    68   143   144    1
    69   158   159   ar
    70    92    93    1
    71    92    90   ar
    72    95    98    1
    73    95    94    1
    74   157   159   ar
    75    98    99    1
    76    57    56    1
    77    88    90   ar
    78   118   117    2
    79    56    55    1
    80   144   145    1
    81   120   119    1
    82   120   123    1
    83   117   119   am
    84   117   116    1
    85    99   101   ar
    86    99   100   ar
    87   116   115    1
    88    55    52    1
    89    51    52    1
    90   101   103   ar
    91    52    53    1
    92   100   102   ar
    93    11    10   ar
    94    11     9   ar
    95    10     8   ar
    96     9     7   ar
    97     8     6   ar
    98   163   162    2
    99   167   169   ar
   100   167   165   ar
   101   103   102   ar
   102   164   165    1
   103   164   161    1
   104    53    54    2
   105    47    49   ar
   106    47    46   ar
   107   169   170   ar
   108     7     6   ar
   109     6     5    1
   110   165   166   ar
   111    49    50   ar
   112    45    46    1
   113    45    42    1
   114    33    32    2
   115   162   161    1
   116    46    48   ar
   117    41    42    1
   118     5     2    1
   119   161   160    1
   120    50    48   ar
   121   170   171    1
   122   170   168   ar
   123    43    42    1
   124    43    44    2
   125   166   168   ar
   126    32    31    1
   127    20    22   ar
   128    20    18   ar
   129    15    14    2
   130    22    21   ar
   131    29    27    1
   132    30    31    1
   133    30    25   am
   134    59    60    1
   135     2     1    1
   136     2     3    1
   137    34    31    1
   138    34    35    1
   139    36    37    1
   140    36    35    1
   141    60    61    1
   142    60    63    1
   143    28    27    1
   144    69    66    1
   145    18    17   ar
   146    65    61   am
   147    65    66    1
   148    21    19   ar
   149    24    27    1
   150    24    25    1
   151    24    23    1
   152     3     4    2
   153     3    12   am
   154    37    38    2
   155    61    62    2
   156    14    23   am
   157    14    13    1
   158    66    67    1
   159    25    26    2
   160    63    64    1
   161    12    13    1
   162    17    19   ar
   163    17    16    1
   164    38    39    1
   165    38    40    1
   166    13    16    1
   167    67    68    2
