@<TRIPOS>MOLECULE
tmp/1sp3A06.pdb
 174 169 0 0 0
SMALL
GASTEIGER

@<TRIPOS>ATOM
      1  N         -4.8600   21.2080   32.5620 N.3   203  CYS203     -0.1221
      2  CA        -3.9690   22.2210   33.1190 C.3   203  CYS203      0.1808
      3  C         -4.6700   22.8980   34.2830 C.2   203  CYS203      0.2601
      4  O         -4.0770   23.7120   34.9510 O.2   203  CYS203     -0.2717
      5  CB        -3.6260   23.2600   32.0340 C.3   203  CYS203      0.0970
      6  SG        -2.9590   22.4530   30.5890 S.3   203  CYS203     -0.0800
      7  N         -5.9440   22.5710   34.4860 N.am  204  GLU204     -0.1979
      8  CA        -6.7890   23.3480   35.3850 C.3   204  GLU204      0.1602
      9  C         -6.9920   22.8030   36.7870 C.2   204  GLU204      0.2287
     10  O         -7.7380   23.3660   37.5250 O.2   204  GLU204     -0.2864
     11  CB        -8.1180   23.7110   34.7440 C.3   204  GLU204      0.0415
     12  CG        -7.9530   24.8840   33.7870 C.3   204  GLU204      0.1163
     13  CD        -9.0970   25.0100   32.7270 C.2   204  GLU204      0.3649
     14  OE1      -10.2310   25.4390   33.0700 O.co2 204  GLU204     -0.2457
     15  OE2       -8.8740   24.6730   31.5340 O.co2 204  GLU204     -0.2457
     16  N         -3.5430   24.8890   37.7090 N.3   207  HIS207     -0.1226
     17  CA        -3.6260   26.3170   37.4180 C.3   207  HIS207      0.1752
     18  C         -5.0660   26.7960   37.4110 C.2   207  HIS207      0.2596
     19  O         -5.9870   26.0800   37.0280 O.2   207  HIS207     -0.2718
     20  CB        -2.9520   26.6530   36.0720 C.3   207  HIS207      0.0759
     21  CG        -1.5150   26.2340   35.9950 C.ar  207  HIS207      0.0818
     22  ND1       -0.4870   26.9920   36.5410 N.ar  207  HIS207     -0.2268
     23  CD2       -0.9260   25.1520   35.4180 C.ar  207  HIS207      0.1154
     24  CE1        0.6710   26.3900   36.2960 C.ar  207  HIS207      0.1986
     25  NE2        0.4390   25.2870   35.6020 N.ar  207  HIS207     -0.2212
     26  N         -5.2720   28.0210   37.8430 N.am  208  ASP208     -0.1960
     27  CA        -6.5510   28.6930   37.6850 C.3   208  ASP208      0.1840
     28  C         -7.0020   28.7330   36.2020 C.2   208  ASP208      0.2622
     29  O         -6.1650   28.9210   35.3270 O.2   208  ASP208     -0.2715
     30  CB        -6.4590   30.1270   38.2060 C.3   208  ASP208      0.1450
     31  CG        -7.8610   30.7420   38.3700 C.2   208  ASP208      0.3671
     32  OD1       -8.5130   31.1210   37.3370 O.co2 208  ASP208     -0.2456
     33  OD2       -8.4170   30.8020   39.4850 O.co2 208  ASP208     -0.2456
     34  N         -8.2880   28.5630   35.9080 N.am  209  SER209     -0.1950
     35  CA        -8.6590   28.6260   34.5100 C.3   209  SER209      0.1924
     36  C         -8.4920   30.0440   33.8810 C.2   209  SER209      0.2314
     37  O         -8.5110   30.2090   32.6600 O.2   209  SER209     -0.2863
     38  CB       -10.0590   28.1010   34.3010 C.3   209  SER209      0.2116
     39  OG       -11.0080   29.0560   34.7930 O.3   209  SER209     -0.2180
     40  N         -5.5180   32.2370   34.5450 N.3   211  PRO211     -0.2102
     41  CA        -4.2330   32.3310   35.2180 C.3   211  PRO211      0.1504
     42  C         -3.4610   33.6280   34.9000 C.2   211  PRO211      0.2576
     43  O         -2.4190   33.7860   35.5400 O.2   211  PRO211     -0.2718
     44  CB        -3.4330   31.1790   34.6000 C.3   211  PRO211      0.0282
     45  CG        -3.9610   31.1090   33.1950 C.3   211  PRO211      0.0208
     46  CD        -5.4290   31.4180   33.3270 C.3   211  PRO211      0.0893
     47  N         -3.9430   34.4730   33.9590 N.am  212  HIS212     -0.1962
     48  CA        -3.2440   35.6930   33.4640 C.3   212  HIS212      0.1787
     49  C         -3.7130   36.9990   34.1710 C.2   212  HIS212      0.2621
     50  O         -4.8910   37.1600   34.4790 O.2   212  HIS212     -0.2715
     51  CB        -3.4460   35.7830   31.9520 C.3   212  HIS212      0.0785
     52  CG        -3.2750   34.4520   31.2380 C.ar  212  HIS212      0.0821
     53  ND1       -4.3310   33.7490   30.6950 N.ar  212  HIS212     -0.2267
     54  CD2       -2.1710   33.7060   30.9910 C.ar  212  HIS212      0.1154
     55  CE1       -3.8870   32.6410   30.1400 C.ar  212  HIS212      0.1986
     56  NE2       -2.5810   32.5800   30.3130 N.ar  212  HIS212     -0.2212
     57  N         -2.8030   37.9230   34.4530 N.am  213  SER213     -0.1936
     58  CA        -3.2350   39.2380   34.9100 C.3   213  SER213      0.2055
     59  C         -3.8740   39.9320   33.6980 C.2   213  SER213      0.2643
     60  O         -4.8200   40.6870   33.8230 O.2   213  SER213     -0.2714
     61  CB        -2.0270   40.0630   35.4040 C.3   213  SER213      0.2130
     62  OG        -0.8900   39.8390   34.5740 O.3   213  SER213     -0.2179
     63  N         -3.3610   39.6530   32.5030 N.am  214  ASN214     -0.1971
     64  CA        -3.9240   40.2380   31.3420 C.3   214  ASN214      0.1688
     65  C         -5.2870   39.5800   31.0120 C.2   214  ASN214      0.2292
     66  O         -5.3400   38.4320   30.5580 O.2   214  ASN214     -0.2864
     67  CB        -2.9730   40.1850   30.1600 C.3   214  ASN214      0.1181
     68  CG        -3.6600   40.6640   28.8640 C.2   214  ASN214      0.2629
     69  OD1       -4.8790   40.9270   28.8460 O.2   214  ASN214     -0.2716
     70  ND2       -2.8750   40.8350   27.8050 N.am  214  ASN214     -0.0877
     71  N         -6.1030   37.7260   27.7740 N.3   217  LEU217     -0.1245
     72  CA        -5.6150   36.3660   27.5990 C.3   217  LEU217      0.1561
     73  C         -6.5380   35.3690   28.2390 C.2   217  LEU217      0.2260
     74  O         -6.8050   34.3130   27.6240 O.2   217  LEU217     -0.2867
     75  CB        -4.2200   36.1260   28.1050 C.3   217  LEU217      0.0270
     76  CG        -3.1330   36.8150   27.3240 C.3   217  LEU217      0.0019
     77  CD1       -1.9050   36.7360   28.2240 C.3   217  LEU217      0.0001
     78  CD2       -2.8030   36.1430   25.9340 C.3   217  LEU217      0.0001
     79  N         -9.4530   34.3470   26.0660 N.3   220  HIS220     -0.1226
     80  CA        -9.1340   33.3840   25.0340 C.3   220  HIS220      0.1752
     81  C         -9.2860   31.9580   25.4770 C.2   220  HIS220      0.2596
     82  O         -9.4710   31.0510   24.6360 O.2   220  HIS220     -0.2718
     83  CB        -7.7000   33.5810   24.5460 C.3   220  HIS220      0.0759
     84  CG        -7.5520   34.7450   23.5790 C.ar  220  HIS220      0.0818
     85  ND1       -7.6600   36.0680   23.9680 N.ar  220  HIS220     -0.2268
     86  CD2       -7.2780   34.7730   22.2480 C.ar  220  HIS220      0.1154
     87  CE1       -7.4230   36.8630   22.9300 C.ar  220  HIS220      0.1986
     88  NE2       -7.1870   36.0980   21.8710 N.ar  220  HIS220     -0.2212
     89  N         -9.2160   31.7100   26.7770 N.am  221  THR221     -0.1953
     90  CA        -9.1780   30.3200   27.1580 C.3   221  THR221      0.1897
     91  C        -10.4890   29.6190   26.9540 C.2   221  THR221      0.2313
     92  O        -10.4780   28.4150   27.0260 O.2   221  THR221     -0.2863
     93  CB        -8.7240   30.0730   28.6600 C.3   221  THR221      0.1794
     94  OG1       -9.7320   30.6050   29.4970 O.3   221  THR221     -0.2208
     95  CG2       -7.5810   30.9230   29.0240 C.3   221  THR221      0.0378
     96  N         -9.3740   28.7090   23.0560 N.3   224  VAL224     -0.1231
     97  CA        -8.0010   28.3030   22.7580 C.3   224  VAL224      0.1692
     98  C         -7.5020   27.4850   23.9790 C.2   224  VAL224      0.2592
     99  O         -7.4680   28.0010   25.1440 O.2   224  VAL224     -0.2718
    100  CB        -7.0950   29.4830   22.4740 C.3   224  VAL224      0.0266
    101  CG1       -5.7670   28.9690   22.1330 C.3   224  VAL224      0.0020
    102  CG2       -7.6350   30.3440   21.3180 C.3   224  VAL224      0.0020
    103  N         -7.0980   26.2510   23.6970 N.am  225  ALA225     -0.1966
    104  CA        -6.5790   25.3370   24.7410 C.3   225  ALA225      0.1728
    105  C         -5.3230   25.8730   25.3020 C.2   225  ALA225      0.2616
    106  O         -4.5210   26.4440   24.5530 O.2   225  ALA225     -0.2715
    107  CB        -6.2680   23.9560   24.1400 C.3   225  ALA225      0.0334
    108  N         -5.0820   25.6560   26.5970 N.am  226  CYS226     -0.1968
    109  CA        -3.8230   26.1280   27.1800 C.3   226  CYS226      0.1712
    110  C         -2.6440   25.6700   26.3580 C.2   226  CYS226      0.2296
    111  O         -1.6830   26.4090   26.1240 O.2   226  CYS226     -0.2864
    112  CB        -3.6250   25.6190   28.6500 C.3   226  CYS226      0.0983
    113  SG        -5.0750   25.6700   29.7030 S.3   226  CYS226     -0.0798
    114  N         -1.1640   27.9000   23.2330 N.3   229  CYS229     -0.1221
    115  CA        -0.2160   28.9960   23.4700 C.3   229  CYS229      0.1808
    116  C          1.1080   28.5770   24.1470 C.2   229  CYS229      0.2601
    117  O          2.1610   29.1620   23.9210 O.2   229  CYS229     -0.2717
    118  CB        -0.9210   30.0880   24.2630 C.3   229  CYS229      0.0970
    119  SG        -2.2680   30.8180   23.2260 S.3   229  CYS229     -0.0800
    120  N          1.0500   27.5460   24.9680 N.am  230  HIS230     -0.1975
    121  CA         2.1180   27.2020   25.8870 C.3   230  HIS230      0.1656
    122  C          2.9980   26.0790   25.4240 C.2   230  HIS230      0.2291
    123  O          4.0080   25.7690   26.0700 O.2   230  HIS230     -0.2864
    124  CB         1.4860   26.8740   27.2160 C.3   230  HIS230      0.0771
    125  CG         1.0130   28.1090   27.9200 C.ar  230  HIS230      0.0820
    126  ND1        1.8990   29.0820   28.3350 N.ar  230  HIS230     -0.2267
    127  CD2       -0.2190   28.5670   28.2190 C.ar  230  HIS230      0.1154
    128  CE1        1.2330   30.0740   28.8770 C.ar  230  HIS230      0.1986
    129  NE2       -0.0460   29.7650   28.8720 N.ar  230  HIS230     -0.2212
    130  N          7.0120   30.8560   30.3620 N.3   399  LYS399     -0.1231
    131  CA         5.9480   31.7880   30.0240 C.3   399  LYS399      0.1693
    132  C          6.3760   32.8340   28.9700 C.2   399  LYS399      0.2591
    133  O          5.5530   33.2860   28.1550 O.2   399  LYS399     -0.2718
    134  CB         5.4340   32.4320   31.3130 C.3   399  LYS399      0.0285
    135  CG         6.5130   33.2730   32.0370 C.3   399  LYS399      0.0035
    136  CD         6.0030   33.8100   33.3680 C.3   399  LYS399      0.0206
    137  CE         6.9460   34.9350   33.9350 C.3   399  LYS399      0.1093
    138  NZ         8.1800   34.2660   34.5580 N.3   399  LYS399     -0.1314
    139  N          7.6770   33.1390   28.9430 N.am  400  GLU400     -0.1979
    140  CA         8.2350   34.1480   27.9980 C.3   400  GLU400      0.1602
    141  C          8.1710   33.6800   26.5220 C.2   400  GLU400      0.2287
    142  O          8.2520   34.4980   25.6290 O.2   400  GLU400     -0.2864
    143  CB         9.7050   34.6020   28.3830 C.3   400  GLU400      0.0415
    144  CG         9.8180   35.2800   29.7290 C.3   400  GLU400      0.1163
    145  CD         9.8930   34.3110   30.9290 C.2   400  GLU400      0.3649
    146  OE1        9.6950   34.8260   32.0730 O.co2 400  GLU400     -0.2457
    147  OE2       10.1760   33.0640   30.7630 O.co2 400  GLU400     -0.2457
    148  N          5.4800   31.6470   25.3540 N.3   402  ALA402     -0.1231
    149  CA         4.0860   31.3720   24.9560 C.3   402  ALA402      0.1694
    150  C          3.7610   32.1690   23.7400 C.2   402  ALA402      0.2592
    151  O          4.3080   33.2460   23.5890 O.2   402  ALA402     -0.2718
    152  CB         3.0740   31.7110   26.0790 C.3   402  ALA402      0.0304
    153  N          2.8920   31.6220   22.8690 N.am  403  LEU403     -0.1966
    154  CA         2.4250   32.3630   21.7240 C.3   403  LEU403      0.1728
    155  C          1.8590   33.6890   22.2490 C.2   403  LEU403      0.2616
    156  O          1.0860   33.6620   23.1630 O.2   403  LEU403     -0.2715
    157  CB         1.3360   31.5910   20.9960 C.3   403  LEU403      0.0311
    158  CG         1.7580   30.2520   20.3860 C.3   403  LEU403      0.0022
    159  CD1        0.6810   29.7600   19.4170 C.3   403  LEU403      0.0001
    160  CD2        3.1520   30.5560   19.6680 C.3   403  LEU403      0.0001
    161  N          2.2960   34.8290   21.7000 N.am  404  ASN404     -0.1972
    162  CA         1.6740   36.0930   22.0570 C.3   404  ASN404      0.1688
    163  C          0.8470   36.6740   20.8860 C.2   404  ASN404      0.2292
    164  O          0.7920   36.0610   19.8230 O.2   404  ASN404     -0.2864
    165  CB         2.7150   37.0730   22.6160 C.3   404  ASN404      0.1181
    166  CG         2.3100   37.6680   24.0380 C.2   404  ASN404      0.2629
    167  OD1        1.1450   38.0320   24.2950 O.2   404  ASN404     -0.2716
    168  ND2        3.3080   37.7790   24.9450 N.am  404  ASN404     -0.0877
    169  N         -0.4420   34.9890   16.3680 N.3   408  CYS408     -0.1235
    170  CA        -1.7020   34.6620   15.6820 C.3   408  CYS408      0.1677
    171  C         -2.3190   35.7990   14.9290 C.2   408  CYS408      0.2270
    172  O         -2.8560   35.5390   13.8720 O.2   408  CYS408     -0.2867
    173  CB        -2.7460   34.1570   16.6700 C.3   408  CYS408      0.0956
    174  SG        -2.1130   32.6790   17.5920 S.3   408  CYS408     -0.0801
@<TRIPOS>BOND
     1   172   171    2
     2   171   170    1
     3   170   169    1
     4   170   173    1
     5   173   174    1
     6   159   158    1
     7   160   158    1
     8   164   163    2
     9   158   157    1
    10   163   162    1
    11   157   154    1
    12   102   100    1
    13   161   162    1
    14   161   155   am
    15   154   155    1
    16   154   153    1
    17    88    86   ar
    18    88    87   ar
    19   162   165    1
    20   101   100    1
    21    86    84   ar
    22   155   156    2
    23   100    97    1
    24   165   166    1
    25    97    96    1
    26    97    98    1
    27   153   150   am
    28    87    85   ar
    29   119   118    1
    30   114   115    1
    31   115   116    1
    32   115   118    1
    33    84    85   ar
    34    84    83    1
    35   151   150    2
    36   103    98   am
    37   103   104    1
    38   150   149    1
    39   117   116    2
    40    98    99    2
    41   166   167    2
    42   166   168   am
    43   107   104    1
    44   116   120   am
    45    83    80    1
    46   106   105    2
    47    82    81    2
    48   104   105    1
    49   149   148    1
    50   149   152    1
    51   120   121    1
    52    80    81    1
    53    80    79    1
    54   105   108   am
    55   122   121    1
    56   122   123    2
    57    81    89   am
    58   142   141    2
    59   121   124    1
    60    78    76    1
    61   111   110    2
    62   110   109    1
    63   141   140    1
    64   108   109    1
    65    89    90    1
    66    91    92    2
    67    91    90    1
    68    90    93    1
    69   109   112    1
    70   124   125    1
    71    76    75    1
    72    76    77    1
    73    72    71    1
    74    72    75    1
    75    72    73    1
    76    74    73    2
    77    70    68   am
    78   125   127   ar
    79   125   126   ar
    80   140   143    1
    81   140   139    1
    82   133   132    2
    83   127   129   ar
    84   126   128   ar
    85   143   144    1
    86   112   113    1
    87    93    95    1
    88    93    94    1
    89    69    68    2
    90    68    67    1
    91   129   128   ar
    92   139   132   am
    93   132   131    1
    94   144   145    1
    95   131   130    1
    96   131   134    1
    97    55    56   ar
    98    55    53   ar
    99    67    64    1
   100    56    54   ar
   101    66    65    2
   102     6     5    1
   103    53    52   ar
   104   147   145   ar
   105   145   146   ar
   106    54    52   ar
   107    65    64    1
   108    52    51    1
   109   134   135    1
   110    64    63    1
   111    15    13   ar
   112    51    48    1
   113     5     2    1
   114   135   136    1
   115    63    59   am
   116     1     2    1
   117    37    36    2
   118    13    14   ar
   119    13    12    1
   120     2     3    1
   121    45    46    1
   122    45    44    1
   123    46    40    1
   124   136   137    1
   125    48    47    1
   126    48    49    1
   127    59    60    2
   128    59    58    1
   129    12    11    1
   130    36    35    1
   131   137   138    1
   132    47    42   am
   133    49    57   am
   134    49    50    2
   135     3     7   am
   136     3     4    2
   137    38    35    1
   138    38    39    1
   139    57    58    1
   140     7     8    1
   141    35    34    1
   142    40    41    1
   143    62    61    1
   144    44    41    1
   145    11     8    1
   146    42    41    1
   147    42    43    2
   148    58    61    1
   149    29    28    2
   150     8     9    1
   151    23    25   ar
   152    23    21   ar
   153    25    24   ar
   154    34    28   am
   155    21    20    1
   156    21    22   ar
   157    20    17    1
   158    28    27    1
   159    24    22   ar
   160     9    10    2
   161    19    18    2
   162    32    31   ar
   163    18    17    1
   164    18    26   am
   165    17    16    1
   166    27    26    1
   167    27    30    1
   168    30    31    1
   169    31    33   ar
