@<TRIPOS>MOLECULE
tmp/1sp3A04.pdb
 237 233 0 0 0
SMALL
GASTEIGER

@<TRIPOS>ATOM
      1  N         10.7280    9.3630   35.4380 N.3   136  ARG136     -0.1245
      2  CA        10.5060    9.5900   33.9930 C.3   136  ARG136      0.1563
      3  C         11.1530    8.5410   33.0950 C.2   136  ARG136      0.2260
      4  O         10.5470    8.0480   32.0870 O.2   136  ARG136     -0.2867
      5  CB        10.9190   10.9910   33.5950 C.3   136  ARG136      0.0307
      6  CG        10.0910   12.1030   34.2920 C.3   136  ARG136      0.0489
      7  CD        10.6100   13.5110   33.9260 C.3   136  ARG136      0.2205
      8  NE        12.0400   13.6870   34.2450 N.pl3 136  ARG136     -0.0865
      9  CZ        12.5350   14.1590   35.4120 C.cat 136  ARG136      0.5346
     10  NH1       11.6950   14.5020   36.3910 N.pl3 136  ARG136      0.1354
     11  NH2       13.8860   14.2530   35.6100 N.pl3 136  ARG136      0.1354
     12  N          8.9860    5.2640   32.4010 N.3   139  CYS139     -0.1235
     13  CA         7.9050    5.4380   31.4310 C.3   139  CYS139      0.1677
     14  C          8.5320    5.5480   30.0720 C.2   139  CYS139      0.2270
     15  O          8.0420    4.9640   29.1710 O.2   139  CYS139     -0.2867
     16  CB         7.0460    6.6920   31.7260 C.3   139  CYS139      0.0956
     17  SG         6.5420    6.6420   33.4530 S.3   139  CYS139     -0.0801
     18  N          7.8610    5.1890   26.0870 N.3   143  HIS143     -0.1226
     19  CA         7.3540    6.5030   25.6080 C.3   143  HIS143      0.1752
     20  C          8.2760    7.5420   24.8930 C.2   143  HIS143      0.2596
     21  O          7.7340    8.4790   24.2960 O.2   143  HIS143     -0.2718
     22  CB         6.5350    7.2010   26.7000 C.3   143  HIS143      0.0759
     23  CG         5.2330    6.5190   26.9810 C.ar  143  HIS143      0.0818
     24  ND1        4.1180    6.7060   26.2010 N.ar  143  HIS143     -0.2268
     25  CD2        4.8970    5.5820   27.9020 C.ar  143  HIS143      0.1154
     26  CE1        3.1470    5.9250   26.6240 C.ar  143  HIS143      0.1986
     27  NE2        3.5910    5.2400   27.6610 N.ar  143  HIS143     -0.2212
     28  N          9.6020    7.3900   24.9910 N.am  144  PHE144     -0.1976
     29  CA        10.5740    8.2250   24.2860 C.3   144  PHE144      0.1639
     30  C         11.0810    7.6810   22.9540 C.2   144  PHE144      0.2290
     31  O         11.7060    8.4340   22.1850 O.2   144  PHE144     -0.2864
     32  CB        11.8290    8.4080   25.1150 C.3   144  PHE144      0.0560
     33  CG        11.6170    9.1000   26.4390 C.ar  144  PHE144     -0.0200
     34  CD1       12.6220    9.0680   27.3900 C.ar  144  PHE144     -0.0042
     35  CD2       10.4090    9.7200   26.7620 C.ar  144  PHE144     -0.0042
     36  CE1       12.4240    9.7070   28.6550 C.ar  144  PHE144     -0.0003
     37  CE2       10.1850   10.3450   28.0240 C.ar  144  PHE144     -0.0003
     38  CZ        11.2020   10.3470   28.9630 C.ar  144  PHE144     -0.0000
     39  N          5.3730   10.6550   18.7350 N.3   148  HIS148     -0.1241
     40  CA         4.9820   11.9380   19.3430 C.3   148  HIS148      0.1621
     41  C          6.3280   12.6940   19.4960 C.2   148  HIS148      0.2264
     42  O          7.2870   12.2170   20.1320 O.2   148  HIS148     -0.2867
     43  CB         4.4280   11.7400   20.7520 C.3   148  HIS148      0.0745
     44  CG         2.9360   11.6110   20.8250 C.ar  148  HIS148      0.0817
     45  ND1        2.0880   12.7020   20.8010 N.ar  148  HIS148     -0.2268
     46  CD2        2.1440   10.5220   20.9900 C.ar  148  HIS148      0.1154
     47  CE1        0.8350   12.2870   20.9370 C.ar  148  HIS148      0.1986
     48  NE2        0.8400   10.9690   21.0480 N.ar  148  HIS148     -0.2212
     49  N          7.7510   14.0170   23.5130 N.3   151  LEU151     -0.1245
     50  CA         8.3950   13.2890   24.6210 C.3   151  LEU151      0.1561
     51  C          9.6690   12.6980   24.0210 C.2   151  LEU151      0.2260
     52  O          9.6180   11.7740   23.2150 O.2   151  LEU151     -0.2867
     53  CB         7.4830   12.1780   25.1180 C.3   151  LEU151      0.0270
     54  CG         6.2330   12.4750   25.9630 C.3   151  LEU151      0.0019
     55  CD1        5.5050   11.2040   26.4080 C.3   151  LEU151      0.0001
     56  CD2        6.5210   13.3180   27.1810 C.3   151  LEU151      0.0001
     57  N         13.8110   13.9170   28.0470 N.3   155  MET155     -0.1245
     58  CA        12.7980   14.0880   29.0860 C.3   155  MET155      0.1570
     59  C         13.1980   13.2190   30.2540 C.2   155  MET155      0.2261
     60  O         12.5550   13.2820   31.3010 O.2   155  MET155     -0.2867
     61  CB        11.3750   13.6640   28.6620 C.3   155  MET155      0.0387
     62  CG        10.6500   14.4310   27.5300 C.3   155  MET155      0.0595
     63  SD        10.3200   16.1470   27.8690 S.3   155  MET155     -0.1393
     64  CE         8.7380   16.2370   27.4860 C.3   155  MET155      0.0692
     65  N          7.6180   21.6400   33.6180 N.3   165  HIS165     -0.1226
     66  CA         7.0740   20.8220   34.6860 C.3   165  HIS165      0.1752
     67  C          8.0430   19.7190   35.0300 C.2   165  HIS165      0.2595
     68  O          8.2690   19.4560   36.2060 O.2   165  HIS165     -0.2718
     69  CB         5.6990   20.2590   34.2530 C.3   165  HIS165      0.0759
     70  CG         4.6950   21.3300   33.9820 C.ar  165  HIS165      0.0818
     71  ND1        4.2930   21.6870   32.7100 N.ar  165  HIS165     -0.2268
     72  CD2        4.0580   22.1750   34.8240 C.ar  165  HIS165      0.1154
     73  CE1        3.3910   22.6510   32.7820 C.ar  165  HIS165      0.1986
     74  NE2        3.2150   22.9570   34.0610 N.ar  165  HIS165     -0.2212
     75  N          8.6650   19.1120   34.0120 N.am  166  MET166     -0.1979
     76  CA         9.6220   18.0270   34.2410 C.3   166  MET166      0.1605
     77  C         11.1140   18.4150   34.5220 C.2   166  MET166      0.2287
     78  O         11.9210   17.5890   34.9880 O.2   166  MET166     -0.2864
     79  CB         9.5520   17.0310   33.0590 C.3   166  MET166      0.0413
     80  CG         8.1520   16.2730   33.1060 C.3   166  MET166      0.0598
     81  SD         8.0430   15.0610   31.7690 S.3   166  MET166     -0.1393
     82  CE         6.9210   15.9010   30.6390 C.3   166  MET166      0.0692
     83  N          9.0110   17.3260   37.8910 N.3   173  PHE173     -0.1227
     84  CA         7.8900   16.3850   38.0330 C.3   173  PHE173      0.1736
     85  C          8.2610   15.0170   37.4580 C.2   173  PHE173      0.2595
     86  O          8.9080   14.9560   36.4090 O.2   173  PHE173     -0.2718
     87  CB         6.6740   16.8400   37.2520 C.3   173  PHE173      0.0547
     88  CG         5.8740   17.9170   37.8950 C.ar  173  PHE173     -0.0202
     89  CD1        6.2830   18.5370   39.0860 C.ar  173  PHE173     -0.0042
     90  CD2        4.7080   18.3530   37.2680 C.ar  173  PHE173     -0.0042
     91  CE1        5.5360   19.5500   39.6320 C.ar  173  PHE173     -0.0003
     92  CE2        3.9770   19.3560   37.7930 C.ar  173  PHE173     -0.0003
     93  CZ         4.3820   19.9410   39.0140 C.ar  173  PHE173     -0.0000
     94  N          7.8340   13.9440   38.1130 N.am  174  GLN174     -0.1965
     95  CA         7.8060   12.6210   37.4410 C.3   174  GLN174      0.1733
     96  C          6.5090   12.5410   36.6800 C.2   174  GLN174      0.2616
     97  O          5.6140   13.3260   37.0180 O.2   174  GLN174     -0.2715
     98  CB         7.8210   11.4770   38.4920 C.3   174  GLN174      0.0408
     99  CG         9.0600   11.6160   39.4820 C.3   174  GLN174      0.0908
    100  CD        10.3900   11.7570   38.7410 C.2   174  GLN174      0.2608
    101  OE1       10.5850   11.2180   37.6130 O.2   174  GLN174     -0.2717
    102  NE2       11.3190   12.4340   39.3650 N.am  174  GLN174     -0.0878
    103  N          6.3300   11.5630   35.7600 N.am  175  CYS175     -0.1968
    104  CA         5.1580   11.5290   34.9320 C.3   175  CYS175      0.1712
    105  C          3.8900   11.3940   35.7390 C.2   175  CYS175      0.2296
    106  O          2.9050   12.0790   35.4200 O.2   175  CYS175     -0.2864
    107  CB         5.2150   10.3550   33.9620 C.3   175  CYS175      0.0983
    108  SG         6.7240   10.1930   33.0160 S.3   175  CYS175     -0.0798
    109  N          1.6120   14.1840   37.3010 N.3   178  CYS178     -0.1221
    110  CA         0.3570   14.5410   36.6470 C.3   178  CYS178      0.1808
    111  C         -0.5610   13.3290   36.3550 C.2   178  CYS178      0.2601
    112  O         -1.7860   13.4130   36.4480 O.2   178  CYS178     -0.2717
    113  CB         0.5790   15.2610   35.3560 C.3   178  CYS178      0.0970
    114  SG         1.5070   16.8040   35.3820 S.3   178  CYS178     -0.0800
    115  N          0.0610   12.2270   35.9420 N.am  179  HIS179     -0.1975
    116  CA        -0.6180   11.0170   35.5540 C.3   179  HIS179      0.1656
    117  C         -0.8570   10.2150   36.8210 C.2   179  HIS179      0.2291
    118  O         -0.2240    9.1630   37.0380 O.2   179  HIS179     -0.2864
    119  CB         0.2860   10.2710   34.5590 C.3   179  HIS179      0.0771
    120  CG         0.2860   10.9080   33.2140 C.ar  179  HIS179      0.0820
    121  ND1       -0.7810   10.7900   32.3230 N.ar  179  HIS179     -0.2267
    122  CD2        1.1800   11.7250   32.6260 C.ar  179  HIS179      0.1154
    123  CE1       -0.5440   11.5340   31.2560 C.ar  179  HIS179      0.1986
    124  NE2        0.6410   12.1050   31.4060 N.ar  179  HIS179     -0.2212
    125  N         -5.0550    9.8500   32.5970 N.3   188  GLY188     -0.1210
    126  CA        -4.7010   10.4470   31.2980 C.3   188  GLY188      0.1956
    127  C         -5.4310    9.9520   30.0350 C.2   188  GLY188      0.2612
    128  O         -5.3440    8.7640   29.6210 O.2   188  GLY188     -0.2717
    129  N         -6.1120   10.8680   29.3790 N.am  189  ASN189     -0.1960
    130  CA        -6.8750   10.5140   28.1580 C.3   189  ASN189      0.1819
    131  C         -5.9740   10.5000   26.9390 C.2   189  ASN189      0.2621
    132  O         -5.3200   11.5540   26.6290 O.2   189  ASN189     -0.2715
    133  CB        -7.9450   11.5890   27.8460 C.3   189  ASN189      0.1195
    134  CG        -9.0970   11.6420   28.8900 C.2   189  ASN189      0.2630
    135  OD1       -9.2190   10.7630   29.7410 O.2   189  ASN189     -0.2716
    136  ND2       -9.9450   12.6930   28.8060 N.am  189  ASN189     -0.0877
    137  N         -5.9560    9.3690   26.2080 N.am  190  ALA190     -0.1963
    138  CA        -5.4160    9.3890   24.8390 C.3   190  ALA190      0.1728
    139  C         -6.3980   10.1930   23.9790 C.2   190  ALA190      0.2616
    140  O         -7.5880   10.2720   24.3090 O.2   190  ALA190     -0.2715
    141  CB        -5.3540    7.9750   24.2980 C.3   190  ALA190      0.0334
    142  N         -5.9570   10.6990   22.8410 N.am  191  MET191     -0.1977
    143  CA        -6.8650   11.3860   21.9090 C.3   191  MET191      0.1605
    144  C         -8.1010   10.5330   21.6010 C.2   191  MET191      0.2287
    145  O         -7.9680    9.3430   21.3540 O.2   191  MET191     -0.2864
    146  CB        -6.1840   11.6290   20.5830 C.3   191  MET191      0.0413
    147  CG        -6.9320   12.6280   19.7170 C.3   191  MET191      0.0598
    148  SD        -6.0710   12.9370   18.1520 S.3   191  MET191     -0.1393
    149  CE        -4.7780   12.0170   18.3260 C.3   191  MET191      0.0692
    150  N         -9.8500   16.6310   28.8520 N.3   199  ASP199     -0.1225
    151  CA        -8.6110   16.3100   29.5360 C.3   199  ASP199      0.1805
    152  C         -8.9540   15.9110   30.9470 C.2   199  ASP199      0.2598
    153  O         -9.3740   16.7650   31.7160 O.2   199  ASP199     -0.2718
    154  CB        -7.6900   17.5330   29.5430 C.3   199  ASP199      0.1424
    155  CG        -7.1210   17.8720   28.1460 C.2   199  ASP199      0.3668
    156  OD1       -7.2190   17.0180   27.2500 O.co2 199  ASP199     -0.2456
    157  OD2       -6.5830   18.9640   27.8450 O.co2 199  ASP199     -0.2456
    158  N         -8.7870   14.6250   31.2810 N.am  200  HIS200     -0.1961
    159  CA        -8.7510   14.1960   32.6740 C.3   200  HIS200      0.1787
    160  C         -7.6810   14.8810   33.5580 C.2   200  HIS200      0.2620
    161  O         -8.0080   15.3590   34.6380 O.2   200  HIS200     -0.2715
    162  CB        -8.6010   12.6880   32.8310 C.3   200  HIS200      0.0785
    163  CG        -8.6430   12.2530   34.2670 C.ar  200  HIS200      0.0821
    164  ND1       -9.8280   12.0290   34.9400 N.ar  200  HIS200     -0.2267
    165  CD2       -7.6570   12.0980   35.1880 C.ar  200  HIS200      0.1154
    166  CE1       -9.5660   11.7100   36.2000 C.ar  200  HIS200      0.1986
    167  NE2       -8.2570   11.7360   36.3750 N.ar  200  HIS200     -0.2212
    168  N         -6.4160   14.8860   33.1560 N.am  201  ILE201     -0.1963
    169  CA        -5.4450   15.7740   33.7710 C.3   201  ILE201      0.1727
    170  C         -5.5900   16.9100   32.8430 C.2   201  ILE201      0.2617
    171  O         -5.6730   16.6720   31.6790 O.2   201  ILE201     -0.2715
    172  CB        -4.0020   15.3310   33.4880 C.3   201  ILE201      0.0290
    173  CG1       -3.8100   13.8330   33.7120 C.3   201  ILE201      0.0022
    174  CG2       -2.9040   16.3390   34.1420 C.3   201  ILE201      0.0023
    175  CD1       -2.6370   13.3310   32.9620 C.3   201  ILE201      0.0001
    176  N         -5.5460   18.1500   33.1920 N.am  202  GLY202     -0.1940
    177  CA        -5.4140   18.9580   31.9560 C.3   202  GLY202      0.2014
    178  C         -4.4630   19.9740   32.5110 C.2   202  GLY202      0.2639
    179  O         -3.4400   19.6120   33.0310 O.2   202  GLY202     -0.2714
    180  N         -4.8600   21.2080   32.5620 N.am  203  CYS203     -0.1967
    181  CA        -3.9690   22.2210   33.1190 C.3   203  CYS203      0.1712
    182  C         -4.6700   22.8980   34.2830 C.2   203  CYS203      0.2296
    183  O         -4.0770   23.7120   34.9510 O.2   203  CYS203     -0.2864
    184  CB        -3.6260   23.2600   32.0340 C.3   203  CYS203      0.0983
    185  SG        -2.9590   22.4530   30.5890 S.3   203  CYS203     -0.0798
    186  N         -2.6850   24.3920   25.9820 N.3   227  GLN227     -0.1245
    187  CA        -1.5950   23.7360   25.2410 C.3   227  GLN227      0.1566
    188  C         -1.2540   24.5060   23.9780 C.2   227  GLN227      0.2260
    189  O         -0.1160   24.5880   23.5870 O.2   227  GLN227     -0.2867
    190  CB        -2.0630   22.3170   24.8450 C.3   227  GLN227      0.0367
    191  CG        -2.0850   21.3000   26.0370 C.3   227  GLN227      0.0905
    192  CD        -3.4070   21.2140   26.6760 C.2   227  GLN227      0.2608
    193  OE1       -4.1780   22.2090   26.6880 O.2   227  GLN227     -0.2717
    194  NE2       -3.7520   20.0070   27.1660 N.am  227  GLN227     -0.0878
    195  N         -1.7770   13.4810   16.1820 N.3   390  TRP390     -0.1227
    196  CA        -1.5420   13.1400   17.5810 C.3   390  TRP390      0.1737
    197  C         -1.5020   14.4330   18.3270 C.2   390  TRP390      0.2595
    198  O         -0.8630   15.3840   17.8610 O.2   390  TRP390     -0.2718
    199  CB        -0.1430   12.5260   17.8400 C.3   390  TRP390      0.0564
    200  CG         0.0340   11.1570   17.3880 C.ar  390  TRP390      0.0003
    201  CD1       -0.1670    9.9850   18.0950 C.ar  390  TRP390      0.0946
    202  CD2        0.4430   10.7860   16.1010 C.ar  390  TRP390      0.0152
    203  NE1        0.1300    8.9020   17.2910 N.ar  390  TRP390     -0.2442
    204  CE2        0.4860    9.3730   16.0550 C.ar  390  TRP390      0.0810
    205  CE3        0.7430   11.5030   14.9540 C.ar  390  TRP390      0.0012
    206  CZ2        0.8000    8.6730   14.8820 C.ar  390  TRP390      0.0191
    207  CZ3        1.0640   10.8410   13.8410 C.ar  390  TRP390      0.0001
    208  CH2        1.1190    9.4130   13.8030 C.ar  390  TRP390      0.0015
    209  N         -2.0790   14.4120   19.5240 N.am  391  ARG391     -0.1980
    210  CA        -2.1440   15.5680   20.4010 C.3   391  ARG391      0.1597
    211  C         -0.7600   15.9040   20.9170 C.2   391  ARG391      0.2287
    212  O          0.0000   15.0070   21.2330 O.2   391  ARG391     -0.2864
    213  CB        -3.0010   15.2450   21.6190 C.3   391  ARG391      0.0334
    214  CG        -4.4280   15.0010   21.2080 C.3   391  ARG391      0.0492
    215  CD        -5.3590   14.9510   22.3300 C.3   391  ARG391      0.2205
    216  NE        -5.2300   16.2390   23.0750 N.pl3 391  ARG391     -0.0865
    217  CZ        -5.6560   16.3990   24.3330 C.cat 391  ARG391      0.5346
    218  NH1       -6.2150   15.3790   24.9860 N.pl3 391  ARG391      0.1354
    219  NH2       -5.5040   17.5630   24.9490 N.pl3 391  ARG391      0.1354
    220  N          0.9480   17.5680   24.2110 N.3   393  ASN393     -0.1225
    221  CA         0.6490   17.9220   25.5770 C.3   393  ASN393      0.1785
    222  C          1.8280   18.2270   26.4720 C.2   393  ASN393      0.2597
    223  O          1.6020   18.7440   27.5870 O.2   393  ASN393     -0.2718
    224  CB        -0.2090   16.8310   26.2770 C.3   393  ASN393      0.1169
    225  CG        -1.6080   16.7080   25.6540 C.2   393  ASN393      0.2627
    226  OD1       -2.5230   17.5060   25.8920 O.2   393  ASN393     -0.2716
    227  ND2       -1.7570   15.6790   24.8600 N.am  393  ASN393     -0.0877
    228  N          3.0310   17.8700   26.0490 N.am  394  HIS394     -0.1975
    229  CA         4.2590   18.0050   26.8520 C.3   394  HIS394      0.1656
    230  C          5.1850   19.0780   26.2610 C.2   394  HIS394      0.2291
    231  O          4.8410   19.6200   25.2270 O.2   394  HIS394     -0.2864
    232  CB         4.9320   16.6480   27.0940 C.3   394  HIS394      0.0771
    233  CG         3.9400   15.6070   27.5050 C.ar  394  HIS394      0.0820
    234  ND1        3.2230   14.8580   26.5820 N.ar  394  HIS394     -0.2267
    235  CD2        3.4340   15.2890   28.7220 C.ar  394  HIS394      0.1154
    236  CE1        2.3470   14.0950   27.2260 C.ar  394  HIS394      0.1986
    237  NE2        2.4630   14.3260   28.5220 N.ar  394  HIS394     -0.2212
@<TRIPOS>BOND
     1   208   207   ar
     2   208   206   ar
     3   207   205   ar
     4   206   204   ar
     5   205   202   ar
     6   204   202   ar
     7   204   203   ar
     8   202   200   ar
     9   195   196    1
    10   203   201   ar
    11   200   199    1
    12   200   201   ar
    13   196   199    1
    14   196   197    1
    15   198   197    2
    16   148   149    1
    17   148   147    1
    18   197   209   am
    19    39    40    1
    20    40    41    1
    21    40    43    1
    22    41    42    2
    23   209   210    1
    24   147   146    1
    25   210   211    1
    26   210   213    1
    27   146   143    1
    28    43    44    1
    29    45    44   ar
    30    45    47   ar
    31    44    46   ar
    32   211   212    2
    33    47    48   ar
    34    46    48   ar
    35   214   213    1
    36   214   215    1
    37   145   144    2
    38   144   143    1
    39   143   142    1
    40    31    30    2
    41   215   216    1
    42   142   139   am
    43    30    29    1
    44   216   217    2
    45    52    51    2
    46    49    50    1
    47   189   188    2
    48   188   187    1
    49   139   140    2
    50   139   138    1
    51    51    50    1
    52   220   221    1
    53    29    28    1
    54    29    32    1
    55    21    20    2
    56   141   138    1
    57   217   219    1
    58   217   218    1
    59    50    53    1
    60   138   137    1
    61   190   187    1
    62   190   191    1
    63   227   225   am
    64    20    28   am
    65    20    19    1
    66    32    33    1
    67    53    54    1
    68   231   230    2
    69   187   186    1
    70   221   224    1
    71   221   222    1
    72    19    18    1
    73    19    22    1
    74   225   226    2
    75   225   224    1
    76    54    55    1
    77    54    56    1
    78   191   192    1
    79   228   222   am
    80   228   229    1
    81    24    26   ar
    82    24    23   ar
    83   137   131   am
    84   230   229    1
    85    33    35   ar
    86    33    34   ar
    87   222   223    2
    88   234   236   ar
    89   234   233   ar
    90    26    27   ar
    91   132   131    2
    92   192   193    2
    93   192   194   am
    94    22    23    1
    95    35    37   ar
    96   229   232    1
    97   131   130    1
    98    23    25   ar
    99   232   233    1
   100   236   237   ar
   101   156   155   ar
   102    34    36   ar
   103    64    63    1
   104   233   235   ar
   105    62    63    1
   106    62    61    1
   107    27    25   ar
   108   157   155   ar
   109   133   130    1
   110   133   134    1
   111    37    38   ar
   112    57    58    1
   113   155   154    1
   114   130   129    1
   115   237   235   ar
   116    36    38   ar
   117    61    58    1
   118   136   134   am
   119   150   151    1
   120   134   135    2
   121    58    59    1
   122    15    14    2
   123   129   127   am
   124   151   154    1
   125   151   152    1
   126   128   127    2
   127   127   126    1
   128    14    13    1
   129    59    60    2
   130   185   184    1
   131    82    81    1
   132   152   158   am
   133   152   153    2
   134   123   124   ar
   135   123   121   ar
   136   158   159    1
   137   126   125    1
   138   124   122   ar
   139    13    16    1
   140    13    12    1
   141   171   170    2
   142    16    17    1
   143    81    80    1
   144   177   178    1
   145   177   176    1
   146   184   181    1
   147     4     3    2
   148   121   120   ar
   149   178   180   am
   150   178   179    2
   151   180   181    1
   152   122   120   ar
   153   159   162    1
   154   159   160    1
   155    71    73   ar
   156    71    70   ar
   157    73    74   ar
   158   162   163    1
   159   170   176   am
   160   170   169    1
   161   175   173    1
   162   108   107    1
   163    79    80    1
   164    79    76    1
   165     3     2    1
   166   181   182    1
   167   168   160   am
   168   168   169    1
   169   120   119    1
   170   172   173    1
   171   172   169    1
   172   172   174    1
   173   160   161    2
   174     5     2    1
   175     5     6    1
   176    65    66    1
   177     7     8    1
   178     7     6    1
   179   107   104    1
   180    70    69    1
   181    70    72   ar
   182     2     1    1
   183    75    76    1
   184    75    67   am
   185    74    72   ar
   186    76    77    1
   187     8     9    2
   188    69    66    1
   189   163   164   ar
   190   163   165   ar
   191   182   183    2
   192    77    78    2
   193   119   116    1
   194    66    67    1
   195   104   105    1
   196   104   103    1
   197   164   166   ar
   198    67    68    2
   199   165   167   ar
   200   113   114    1
   201   113   110    1
   202     9    11    1
   203     9    10    1
   204   106   105    2
   205   116   115    1
   206   116   117    1
   207   103    96   am
   208   115   111   am
   209   166   167   ar
   210   111   112    2
   211   111   110    1
   212    86    85    2
   213   110   109    1
   214    96    97    2
   215    96    95    1
   216   117   118    2
   217    87    88    1
   218    87    84    1
   219    90    92   ar
   220    90    88   ar
   221    95    94    1
   222    95    98    1
   223    85    84    1
   224    85    94   am
   225   101   100    2
   226    92    93   ar
   227    83    84    1
   228    88    89   ar
   229    98    99    1
   230   100   102   am
   231   100    99    1
   232    93    91   ar
   233    89    91   ar
