@<TRIPOS>MOLECULE
tmp/1sp3A01.pdb
 213 205 0 0 0
SMALL
GASTEIGER

@<TRIPOS>ATOM
      1  N        -10.4270   -0.0170   20.0260 N.3    54  ARG54      -0.1231
      2  CA        -9.2130    0.4230   19.4240 C.3    54  ARG54       0.1694
      3  C         -8.1000    0.0750   20.4540 C.2    54  ARG54       0.2593
      4  O         -8.0120   -1.0610   20.8700 O.2    54  ARG54      -0.2718
      5  CB        -9.3300    1.9400   19.0810 C.3    54  ARG54       0.0321
      6  CG        -8.4110    2.3910   17.9770 C.3    54  ARG54       0.0489
      7  CD        -8.8180    3.6410   17.0750 C.3    54  ARG54       0.2205
      8  NE        -7.5980    4.0530   16.3620 N.pl3  54  ARG54      -0.0865
      9  CZ        -6.6720    4.8590   16.9150 C.cat  54  ARG54       0.5346
     10  NH1       -6.8880    5.3910   18.1460 N.pl3  54  ARG54       0.1354
     11  NH2       -5.5530    5.1630   16.2490 N.pl3  54  ARG54       0.1354
     12  N         -7.2720    1.0340   20.8770 N.am   55  GLY55      -0.1942
     13  CA        -6.0480    0.7170   21.5970 C.3    55  GLY55       0.2014
     14  C         -5.0360    0.2700   20.5630 C.2    55  GLY55       0.2638
     15  O         -5.3820    0.0550   19.3850 O.2    55  GLY55      -0.2714
     16  N         -3.7850    0.1160   20.9840 N.am   56  LYS56      -0.1977
     17  CA        -2.7000   -0.2210   20.0850 C.3    56  LYS56       0.1596
     18  C         -2.9370   -1.5740   19.3400 C.2    56  LYS56       0.2287
     19  O         -2.5070   -1.7120   18.1880 O.2    56  LYS56      -0.2864
     20  CB        -1.3560   -0.3160   20.8550 C.3    56  LYS56       0.0298
     21  CG        -0.2090   -0.6990   19.9780 C.3    56  LYS56       0.0038
     22  CD         1.0860   -0.3170   20.6120 C.3    56  LYS56       0.0206
     23  CE         2.1530   -0.7780   19.6560 C.3    56  LYS56       0.1093
     24  NZ         3.4220   -0.3660   20.1910 N.3    56  LYS56      -0.1314
     25  N         -4.9520   -0.8940   16.2210 N.3    59  SER59      -0.1217
     26  CA        -4.8540    0.3880   15.5330 C.3    59  SER59       0.1889
     27  C         -4.0950    0.2430   14.2690 C.2    59  SER59       0.2288
     28  O         -3.1710   -0.5750   14.1690 O.2    59  SER59      -0.2866
     29  CB        -4.1720    1.4580   16.4180 C.3    59  SER59       0.2089
     30  OG        -5.0580    1.7770   17.5000 O.3    59  SER59      -0.2183
     31  N         -1.6420    2.7250   11.8750 N.3    61  ASN61      -0.1240
     32  CA        -0.9590    4.0340   11.7870 C.3    61  ASN61       0.1653
     33  C         -0.1600    4.1190   10.5160 C.2    61  ASN61       0.2266
     34  O         -0.1830    3.1700    9.7000 O.2    61  ASN61      -0.2867
     35  CB        -0.1250    4.3630   13.0560 C.3    61  ASN61       0.1155
     36  CG         1.1890    3.5330   13.1670 C.2    61  ASN61       0.2627
     37  OD1        1.7120    2.9860   12.1640 O.2    61  ASN61      -0.2716
     38  ND2        1.7820    3.5240   14.3870 N.am   61  ASN61      -0.0877
     39  N          4.8390    2.1260   11.3840 N.3    64  CYS64      -0.1221
     40  CA         4.9470    0.6870   11.1530 C.3    64  CYS64       0.1808
     41  C          3.6530    0.0140   10.7710 C.2    64  CYS64       0.2601
     42  O          3.6400   -1.1950   10.4570 O.2    64  CYS64      -0.2717
     43  CB         5.7250   -0.0200   12.3190 C.3    64  CYS64       0.0970
     44  SG         7.5440    0.4980   12.3750 S.3    64  CYS64      -0.0800
     45  N          2.5400    0.7550   10.8320 N.am   65  VAL65      -0.1965
     46  CA         1.2460    0.2520   10.3370 C.3    65  VAL65       0.1727
     47  C          0.4590   -0.5480   11.3840 C.2    65  VAL65       0.2616
     48  O         -0.5900   -0.0970   11.8550 O.2    65  VAL65      -0.2715
     49  CB         1.3540   -0.5470    9.0040 C.3    65  VAL65       0.0290
     50  CG1       -0.0700   -0.8720    8.4570 C.3    65  VAL65       0.0023
     51  CG2        2.1010    0.2870    7.9290 C.3    65  VAL65       0.0023
     52  N          0.9310   -1.7300   11.7500 N.am   66  ALA66      -0.1963
     53  CA         0.1160   -2.5740   12.5740 C.3    66  ALA66       0.1728
     54  C          0.9340   -3.6870   13.1400 C.2    66  ALA66       0.2616
     55  O          1.8570   -4.2720   12.4920 O.2    66  ALA66      -0.2715
     56  CB        -1.0550   -3.1870   11.8200 C.3    66  ALA66       0.0334
     57  N          0.5470   -3.9780   14.3750 N.am   67  ILE67      -0.1977
     58  CA         1.1850   -5.0200   15.1780 C.3    67  ILE67       0.1596
     59  C          1.1360   -6.4710   14.6940 C.2    67  ILE67       0.2287
     60  O          2.1180   -7.2240   14.9240 O.2    67  ILE67      -0.2864
     61  CB         0.6100   -4.8410   16.6100 C.3    67  ILE67       0.0276
     62  CG1        1.7010   -4.2850   17.4300 C.3    67  ILE67       0.0022
     63  CG2       -0.2530   -6.0030   17.2080 C.3    67  ILE67       0.0022
     64  CD1        1.5460   -2.8280   17.4900 C.3    67  ILE67       0.0001
     65  N          3.7980   -8.8740   13.3170 N.3    70  ASN70      -0.1240
     66  CA         5.0710   -8.2390   13.6730 C.3    70  ASN70       0.1653
     67  C          5.3350   -8.2290   15.1620 C.2    70  ASN70       0.2266
     68  O          6.3270   -7.6030   15.5760 O.2    70  ASN70      -0.2867
     69  CB         5.1540   -6.7670   13.1570 C.3    70  ASN70       0.1155
     70  CG         4.8080   -6.6930   11.7240 C.2    70  ASN70       0.2627
     71  OD1        5.4560   -7.3780   10.9580 O.2    70  ASN70      -0.2716
     72  ND2        3.6630   -6.0400   11.3610 N.am   70  ASN70      -0.0877
     73  N          8.8540   -7.7100   17.3500 N.3    73  ARG73      -0.1227
     74  CA         9.4460   -6.4100   17.3190 C.3    73  ARG73       0.1737
     75  C          8.5750   -5.4140   18.1410 C.2    73  ARG73       0.2595
     76  O          9.1180   -4.5560   18.7610 O.2    73  ARG73      -0.2718
     77  CB         9.7240   -5.8940   15.8700 C.3    73  ARG73       0.0576
     78  CG        11.0640   -5.0620   15.7280 C.2    73  ARG73       0.0160
     79  CD        10.9910   -3.8060   14.7170 C.2    73  ARG73       0.1886
     80  NE        12.1160   -2.8200   14.7990 N.pl3  73  ARG73      -0.0578
     81  CZ        12.1450   -1.6050   14.1820 C.cat  73  ARG73       0.5393
     82  NH1       13.2010   -0.8120   14.3110 N.pl3  73  ARG73       0.1358
     83  NH2       11.1280   -1.1680   13.4450 N.pl3  73  ARG73       0.1358
     84  N          7.2620   -5.5160   18.1730 N.am   74  CYS74      -0.1970
     85  CA         6.4920   -4.4210   18.7900 C.3    74  CYS74       0.1712
     86  C          6.3250   -4.5290   20.2900 C.2    74  CYS74       0.2296
     87  O          6.2530   -3.5080   21.0060 O.2    74  CYS74      -0.2864
     88  CB         5.1720   -4.2300   18.0470 C.3    74  CYS74       0.0983
     89  SG         5.5300   -4.4350   16.2500 S.3    74  CYS74      -0.0798
     90  N          8.3560   -5.4990   22.5350 N.3    76  SER76      -0.1202
     91  CA         9.4640   -4.9490   23.3360 C.3    76  SER76       0.2020
     92  C          8.9960   -3.7330   24.0790 C.2    76  SER76       0.2619
     93  O          9.6990   -3.2860   25.0200 O.2    76  SER76      -0.2717
     94  CB        10.5990   -4.4310   22.3990 C.3    76  SER76       0.2103
     95  OG        10.0570   -4.1940   21.0750 O.3    76  SER76      -0.2182
     96  N          7.8990   -3.1100   23.6110 N.am   77  CYS77      -0.1969
     97  CA         7.2200   -2.0240   24.3540 C.3    77  CYS77       0.1712
     98  C          5.8300   -2.4310   24.8860 C.2    77  CYS77       0.2296
     99  O          4.9490   -1.5920   25.0830 O.2    77  CYS77      -0.2864
    100  CB         7.1680   -0.7240   23.5220 C.3    77  CYS77       0.0983
    101  SG         8.8790   -0.1530   23.3450 S.3    77  CYS77      -0.0798
    102  N         14.8220   -5.4820   21.8210 N.3   112  PRO112     -0.2116
    103  CA        13.9790   -4.8070   20.7990 C.3   112  PRO112      0.1372
    104  C         13.3640   -5.7800   19.8490 C.2   112  PRO112      0.2244
    105  O         12.3620   -5.3980   19.2120 O.2   112  PRO112     -0.2868
    106  CB        14.9600   -4.0150   19.9400 C.3   112  PRO112      0.0268
    107  CG        16.2900   -4.0250   20.7000 C.3   112  PRO112      0.0207
    108  CD        16.2430   -5.0960   21.7690 C.3   112  PRO112      0.0892
    109  N         11.2310    4.2850   28.7390 N.3   141  SER141     -0.1202
    110  CA        11.6780    3.0750   28.0610 C.3   141  SER141      0.2020
    111  C         10.7610    2.7040   26.8840 C.2   141  SER141      0.2619
    112  O         11.1760    2.0280   25.9610 O.2   141  SER141     -0.2717
    113  CB        11.7570    1.9120   29.0590 C.3   141  SER141      0.2103
    114  OG        12.7920    2.1860   30.0320 O.3   141  SER141     -0.2182
    115  N          9.4870    3.0950   26.9550 N.am  142  CYS142     -0.1955
    116  CA         8.5580    2.8680   25.8380 C.3   142  CYS142      0.1843
    117  C          8.0870    4.1520   25.2640 C.2   142  CYS142      0.2625
    118  O          7.9020    4.1830   24.1070 O.2   142  CYS142     -0.2714
    119  CB         7.3360    2.1050   26.2700 C.3   142  CYS142      0.0997
    120  SG         7.7320    0.5030   27.0380 S.3   142  CYS142     -0.0797
    121  N          7.8610    5.1890   26.0870 N.am  143  HIS143     -0.1973
    122  CA         7.3540    6.5030   25.6080 C.3   143  HIS143      0.1656
    123  C          8.2760    7.5420   24.8930 C.2   143  HIS143      0.2291
    124  O          7.7340    8.4790   24.2960 O.2   143  HIS143     -0.2864
    125  CB         6.5350    7.2010   26.7000 C.3   143  HIS143      0.0771
    126  CG         5.2330    6.5190   26.9810 C.ar  143  HIS143      0.0820
    127  ND1        4.1180    6.7060   26.2010 N.ar  143  HIS143     -0.2267
    128  CD2        4.8970    5.5820   27.9020 C.ar  143  HIS143      0.1154
    129  CE1        3.1470    5.9250   26.6240 C.ar  143  HIS143      0.1986
    130  NE2        3.5910    5.2400   27.6610 N.ar  143  HIS143     -0.2212
    131  N         10.8540    6.4090   22.6400 N.3   145  TYR145     -0.1227
    132  CA        11.2390    5.8670   21.2990 C.3   145  TYR145      0.1736
    133  C         10.0240    5.3000   20.4250 C.2   145  TYR145      0.2596
    134  O          8.8280    5.5090   20.7710 O.2   145  TYR145     -0.2718
    135  CB        12.4480    4.8880   21.4490 C.3   145  TYR145      0.0548
    136  CG        13.3590    5.3300   22.5900 C.ar  145  TYR145     -0.0200
    137  CD1       13.0240    5.0650   23.9600 C.ar  145  TYR145     -0.0009
    138  CD2       14.5160    6.0770   22.3180 C.ar  145  TYR145     -0.0009
    139  CE1       13.8580    5.5350   25.0460 C.ar  145  TYR145      0.0417
    140  CE2       15.3550    6.5530   23.3600 C.ar  145  TYR145      0.0417
    141  CZ        15.0320    6.3020   24.7250 C.ar  145  TYR145      0.1957
    142  OH        15.8800    6.8010   25.7170 O.3   145  TYR145     -0.2866
    143  N         10.3300    4.6480   19.2780 N.am  146  GLY146     -0.1957
    144  CA         9.3120    4.0530   18.3980 C.3   146  GLY146      0.1869
    145  C          9.7110    2.6500   17.9040 C.2   146  GLY146      0.2309
    146  O          9.0200    2.0050   17.0690 O.2   146  GLY146     -0.2863
    147  N          8.2130    9.9000   17.8940 N.3   147  LYS147     -0.1231
    148  CA         6.9850    9.5810   17.1770 C.3   147  LYS147      0.1693
    149  C          5.8070   10.5880   17.4670 C.2   147  LYS147      0.2592
    150  O          5.2760   11.2550   16.5370 O.2   147  LYS147     -0.2718
    151  CB         6.6090    8.1120   17.4330 C.3   147  LYS147      0.0285
    152  CG         6.0400    7.4180   16.2480 C.3   147  LYS147      0.0035
    153  CD         5.0510    6.3530   16.6910 C.3   147  LYS147      0.0206
    154  CE         3.6070    6.8860   16.8890 C.3   147  LYS147      0.1093
    155  NZ         2.9230    6.1780   18.0290 N.3   147  LYS147     -0.1314
    156  N          5.3730   10.6550   18.7350 N.am  148  HIS148     -0.1976
    157  CA         4.9820   11.9380   19.3430 C.3   148  HIS148      0.1656
    158  C          6.3280   12.6940   19.4960 C.2   148  HIS148      0.2291
    159  O          7.2870   12.2170   20.1320 O.2   148  HIS148     -0.2864
    160  CB         4.4280   11.7400   20.7520 C.3   148  HIS148      0.0771
    161  CG         2.9360   11.6110   20.8250 C.ar  148  HIS148      0.0820
    162  ND1        2.0880   12.7020   20.8010 N.ar  148  HIS148     -0.2267
    163  CD2        2.1440   10.5220   20.9900 C.ar  148  HIS148      0.1154
    164  CE1        0.8350   12.2870   20.9370 C.ar  148  HIS148      0.1986
    165  NE2        0.8400   10.9690   21.0480 N.ar  148  HIS148     -0.2212
    166  N         -5.9560    9.3690   26.2080 N.3   190  ALA190     -0.1245
    167  CA        -5.4160    9.3890   24.8390 C.3   190  ALA190      0.1562
    168  C         -6.3980   10.1930   23.9790 C.2   190  ALA190      0.2260
    169  O         -7.5880   10.2720   24.3090 O.2   190  ALA190     -0.2867
    170  CB        -5.3540    7.9750   24.2980 C.3   190  ALA190      0.0290
    171  N          6.1780   -7.0630    8.1620 N.3   344  THR344     -0.1218
    172  CA         7.4440   -6.4700    7.8230 C.3   344  THR344      0.1862
    173  C          8.5080   -7.2230    8.5400 C.2   344  THR344      0.2287
    174  O          9.5940   -7.4030    8.0150 O.2   344  THR344     -0.2866
    175  CB         7.5290   -4.9970    8.2710 C.3   344  THR344      0.1770
    176  OG1        7.2480   -4.9180    9.6740 O.3   344  THR344     -0.2211
    177  CG2        6.5000   -4.0650    7.5190 C.3   344  THR344      0.0375
    178  N         10.9160   -6.8150    5.3170 N.3   351  TRP351     -0.1241
    179  CA        12.3110   -6.5120    5.6840 C.3   351  TRP351      0.1605
    180  C         13.3480   -7.6330    5.4010 C.2   351  TRP351      0.2264
    181  O         14.5620   -7.3290    5.3060 O.2   351  TRP351     -0.2867
    182  CB        12.4450   -6.0510    7.1180 C.3   351  TRP351      0.0550
    183  CG        11.8310   -4.7450    7.3620 C.ar  351  TRP351      0.0003
    184  CD1       11.5010   -3.7780    6.4300 C.ar  351  TRP351      0.0946
    185  CD2       11.4220   -4.2410    8.6280 C.ar  351  TRP351      0.0152
    186  NE1       10.9180   -2.7010    7.0600 N.ar  351  TRP351     -0.2442
    187  CE2       10.8660   -2.9490    8.4090 C.ar  351  TRP351      0.0810
    188  CE3       11.5030   -4.7370    9.9470 C.ar  351  TRP351      0.0012
    189  CZ2       10.3440   -2.1550    9.4600 C.ar  351  TRP351      0.0191
    190  CZ3       11.0020   -3.9700   10.9850 C.ar  351  TRP351      0.0001
    191  CH2       10.4120   -2.6800   10.7320 C.ar  351  TRP351      0.0015
    192  N         -1.9460   11.4790    9.7480 N.3   388  MET388     -0.1245
    193  CA        -2.3530   11.0220   11.0790 C.3   388  MET388      0.1570
    194  C         -2.0550   12.1100   12.1270 C.2   388  MET388      0.2261
    195  O         -1.0330   12.7540   12.0480 O.2   388  MET388     -0.2867
    196  CB        -1.6050    9.7760   11.4350 C.3   388  MET388      0.0387
    197  CG        -2.1270    9.1740   12.7670 C.3   388  MET388      0.0595
    198  SD        -1.8780    7.3700   12.6790 S.3   388  MET388     -0.1393
    199  CE        -2.3290    6.9560   14.4930 C.3   388  MET388      0.0692
    200  N         -1.7770   13.4810   16.1820 N.3   390  TRP390     -0.1241
    201  CA        -1.5420   13.1400   17.5810 C.3   390  TRP390      0.1605
    202  C         -1.5020   14.4330   18.3270 C.2   390  TRP390      0.2264
    203  O         -0.8630   15.3840   17.8610 O.2   390  TRP390     -0.2867
    204  CB        -0.1430   12.5260   17.8400 C.3   390  TRP390      0.0550
    205  CG         0.0340   11.1570   17.3880 C.ar  390  TRP390      0.0003
    206  CD1       -0.1670    9.9850   18.0950 C.ar  390  TRP390      0.0946
    207  CD2        0.4430   10.7860   16.1010 C.ar  390  TRP390      0.0152
    208  NE1        0.1300    8.9020   17.2910 N.ar  390  TRP390     -0.2442
    209  CE2        0.4860    9.3730   16.0550 C.ar  390  TRP390      0.0810
    210  CE3        0.7430   11.5030   14.9540 C.ar  390  TRP390      0.0012
    211  CZ2        0.8000    8.6730   14.8820 C.ar  390  TRP390      0.0191
    212  CZ3        1.0640   10.8410   13.8410 C.ar  390  TRP390      0.0001
    213  CH2        1.1190    9.4130   13.8030 C.ar  390  TRP390      0.0015
@<TRIPOS>BOND
     1   181   180    2
     2   178   179    1
     3   180   179    1
     4   179   182    1
     5   184   186   ar
     6   184   183   ar
     7   186   187   ar
     8   182   183    1
     9   183   185   ar
    10   177   175    1
    11   172   171    1
    12   172   175    1
    13   172   173    1
    14    51    49    1
    15   174   173    2
    16   175   176    1
    17   187   185   ar
    18   187   189   ar
    19    50    49    1
    20   185   188   ar
    21    49    46    1
    22   189   191   ar
    23    34    33    2
    24   192   193    1
    25   188   190   ar
    26    46    45    1
    27    46    47    1
    28    42    41    2
    29    33    32    1
    30   191   190   ar
    31    41    45   am
    32    41    40    1
    33    71    70    2
    34   193   196    1
    35   193   194    1
    36    40    39    1
    37    40    43    1
    38    72    70   am
    39    47    52   am
    40    47    48    2
    41   196   197    1
    42    70    69    1
    43    52    53    1
    44    32    31    1
    45    32    35    1
    46    56    53    1
    47   195   194    2
    48    37    36    2
    49    43    44    1
    50    55    54    2
    51    53    54    1
    52   198   197    1
    53   198   199    1
    54    35    36    1
    55    54    57   am
    56    69    66    1
    57    36    38   am
    58    65    66    1
    59    83    81    1
    60    66    67    1
    61   213   212   ar
    62   213   211   ar
    63   212   210   ar
    64    28    27    2
    65    81    82    1
    66    81    80    2
    67    27    26    1
    68    57    58    1
    69    59    60    2
    70    59    58    1
    71    79    80    1
    72    79    78    2
    73   211   209   ar
    74   210   207   ar
    75    67    68    2
    76    58    61    1
    77    26    25    1
    78    26    29    1
    79    78    77    1
    80    77    74    1
    81   209   207   ar
    82   209   208   ar
    83   207   205   ar
    84   200   201    1
    85   152   153    1
    86   152   151    1
    87    11     9    1
    88    89    88    1
    89     8     9    2
    90     8     7    1
    91    29    30    1
    92   150   149    2
    93    61    63    1
    94    61    62    1
    95   153   154    1
    96   154   155    1
    97     9    10    1
    98   146   145    2
    99     7     6    1
   100   148   151    1
   101   148   149    1
   102   148   147    1
   103   208   206   ar
   104    74    73    1
   105    74    75    1
   106   205   204    1
   107   205   206   ar
   108    62    64    1
   109   149   156   am
   110   201   204    1
   111   201   202    1
   112   203   202    2
   113   145   144    1
   114     6     5    1
   115    88    85    1
   116    75    84   am
   117    75    76    2
   118    84    85    1
   119    19    18    2
   120   144   143    1
   121   156   157    1
   122    85    86    1
   123     5     2    1
   124   105   104    2
   125   143   133   am
   126    18    17    1
   127   157   158    1
   128   157   160    1
   129    15    14    2
   130     2     1    1
   131     2     3    1
   132   158   159    2
   133    23    24    1
   134    23    22    1
   135   104   103    1
   136   106   107    1
   137   106   103    1
   138    21    22    1
   139    21    20    1
   140    17    20    1
   141    17    16    1
   142    86    87    2
   143   133   134    2
   144   133   132    1
   145     3     4    2
   146     3    12   am
   147    14    16   am
   148    14    13    1
   149   107   108    1
   150   160   161    1
   151   103   102    1
   152   162   161   ar
   153   162   164   ar
   154   161   163   ar
   155    12    13    1
   156   164   165   ar
   157   163   165   ar
   158    95    94    1
   159   132   135    1
   160   132   131    1
   161   135   136    1
   162   108   102    1
   163   138   136   ar
   164   138   140   ar
   165    94    91    1
   166    90    91    1
   167   136   137   ar
   168    91    92    1
   169   101   100    1
   170   140   141   ar
   171   100    97    1
   172    96    92   am
   173    96    97    1
   174   137   139   ar
   175   168   169    2
   176   168   167    1
   177    92    93    2
   178   118   117    2
   179   124   123    2
   180   170   167    1
   181    97    98    1
   182   141   139   ar
   183   141   142    1
   184   167   166    1
   185    98    99    2
   186   123   122    1
   187   117   116    1
   188   117   121   am
   189   122   121    1
   190   122   125    1
   191   116   119    1
   192   116   115    1
   193   112   111    2
   194   127   129   ar
   195   127   126   ar
   196   119   120    1
   197   129   130   ar
   198   125   126    1
   199   111   115   am
   200   111   110    1
   201   126   128   ar
   202   130   128   ar
   203   110   109    1
   204   110   113    1
   205   113   114    1
