@<TRIPOS>MOLECULE
tmp/1sp3A05.pdb
 172 166 0 0 0
SMALL
GASTEIGER

@<TRIPOS>ATOM
      1  N         14.6630   23.4150   31.8800 N.3   160  LYS160     -0.1245
      2  CA        13.5170   24.3110   31.8800 C.3   160  LYS160      0.1561
      3  C         13.1100   24.6680   30.4720 C.2   160  LYS160      0.2260
      4  O         11.9220   24.7080   30.1970 O.2   160  LYS160     -0.2867
      5  CB        13.7830   25.5940   32.6530 C.3   160  LYS160      0.0271
      6  CG        12.5150   26.3230   33.1710 C.3   160  LYS160      0.0035
      7  CD        12.9130   27.6330   33.9490 C.3   160  LYS160      0.0206
      8  CE        11.6800   28.4330   34.3830 C.3   160  LYS160      0.1093
      9  NZ        11.7950   29.9580   34.1480 N.3   160  LYS160     -0.1314
     10  N          8.9650   22.9330   31.3870 N.3   164  VAL164     -0.1231
     11  CA         8.9330   23.5360   32.7070 C.3   164  VAL164      0.1692
     12  C          8.4750   22.6390   33.8800 C.2   164  VAL164      0.2592
     13  O          8.8440   22.9130   35.0450 O.2   164  VAL164     -0.2718
     14  CB         8.1150   24.8550   32.7210 C.3   164  VAL164      0.0266
     15  CG1        8.6320   25.7670   31.6820 C.3   164  VAL164      0.0020
     16  CG2        6.5870   24.6150   32.5160 C.3   164  VAL164      0.0020
     17  N          7.6180   21.6400   33.6180 N.am  165  HIS165     -0.1976
     18  CA         7.0740   20.8220   34.6860 C.3   165  HIS165      0.1656
     19  C          8.0430   19.7190   35.0300 C.2   165  HIS165      0.2291
     20  O          8.2690   19.4560   36.2060 O.2   165  HIS165     -0.2864
     21  CB         5.6990   20.2590   34.2530 C.3   165  HIS165      0.0771
     22  CG         4.6950   21.3300   33.9820 C.ar  165  HIS165      0.0820
     23  ND1        4.2930   21.6870   32.7100 N.ar  165  HIS165     -0.2267
     24  CD2        4.0580   22.1750   34.8240 C.ar  165  HIS165      0.1154
     25  CE1        3.3910   22.6510   32.7820 C.ar  165  HIS165      0.1986
     26  NE2        3.2150   22.9570   34.0610 N.ar  165  HIS165     -0.2212
     27  N         10.9280   22.2730   38.8070 N.3   171  ASN171     -0.1240
     28  CA         9.7790   21.5150   39.3270 C.3   171  ASN171      0.1653
     29  C         10.0290   20.0020   39.3400 C.2   171  ASN171      0.2266
     30  O          9.4730   19.3500   40.2020 O.2   171  ASN171     -0.2867
     31  CB         8.4460   21.8210   38.6350 C.3   171  ASN171      0.1155
     32  CG         7.9530   23.2220   38.8770 C.2   171  ASN171      0.2627
     33  OD1        7.9810   23.7420   40.0010 O.2   171  ASN171     -0.2716
     34  ND2        7.4800   23.8510   37.8080 N.am  171  ASN171     -0.0877
     35  N          9.0110   17.3260   37.8910 N.3   173  PHE173     -0.1241
     36  CA         7.8900   16.3850   38.0330 C.3   173  PHE173      0.1605
     37  C          8.2610   15.0170   37.4580 C.2   173  PHE173      0.2264
     38  O          8.9080   14.9560   36.4090 O.2   173  PHE173     -0.2867
     39  CB         6.6740   16.8400   37.2520 C.3   173  PHE173      0.0534
     40  CG         5.8740   17.9170   37.8950 C.ar  173  PHE173     -0.0203
     41  CD1        6.2830   18.5370   39.0860 C.ar  173  PHE173     -0.0042
     42  CD2        4.7080   18.3530   37.2680 C.ar  173  PHE173     -0.0042
     43  CE1        5.5360   19.5500   39.6320 C.ar  173  PHE173     -0.0003
     44  CE2        3.9770   19.3560   37.7930 C.ar  173  PHE173     -0.0003
     45  CZ         4.3820   19.9410   39.0140 C.ar  173  PHE173     -0.0000
     46  N          3.3280   12.4920   38.6680 N.3   177  ASN177     -0.1225
     47  CA         2.8960   13.7110   39.3700 C.3   177  ASN177      0.1785
     48  C          1.6660   14.3110   38.6320 C.2   177  ASN177      0.2597
     49  O          0.7640   14.8850   39.2560 O.2   177  ASN177     -0.2718
     50  CB         4.0080   14.7050   39.3150 C.3   177  ASN177      0.1169
     51  CG         4.9050   14.6520   40.5010 C.2   177  ASN177      0.2627
     52  OD1        4.5810   15.3000   41.5100 O.2   177  ASN177     -0.2716
     53  ND2        6.0720   13.9570   40.4060 N.am  177  ASN177     -0.0877
     54  N          1.6120   14.1840   37.3010 N.am  178  CYS178     -0.1970
     55  CA         0.3570   14.5410   36.6470 C.3   178  CYS178      0.1712
     56  C         -0.5610   13.3290   36.3550 C.2   178  CYS178      0.2296
     57  O         -1.7860   13.4130   36.4480 O.2   178  CYS178     -0.2864
     58  CB         0.5790   15.2610   35.3560 C.3   178  CYS178      0.0983
     59  SG         1.5070   16.8040   35.3820 S.3   178  CYS178     -0.0798
     60  N         -6.4160   14.8860   33.1560 N.3   201  ILE201     -0.1231
     61  CA        -5.4450   15.7740   33.7710 C.3   201  ILE201      0.1692
     62  C         -5.5900   16.9100   32.8430 C.2   201  ILE201      0.2593
     63  O         -5.6730   16.6720   31.6790 O.2   201  ILE201     -0.2718
     64  CB        -4.0020   15.3310   33.4880 C.3   201  ILE201      0.0266
     65  CG1       -3.8100   13.8330   33.7120 C.3   201  ILE201      0.0019
     66  CG2       -2.9040   16.3390   34.1420 C.3   201  ILE201      0.0020
     67  CD1       -2.6370   13.3310   32.9620 C.3   201  ILE201      0.0001
     68  N         -5.5460   18.1500   33.1920 N.am  202  GLY202     -0.1942
     69  CA        -5.4140   18.9580   31.9560 C.3   202  GLY202      0.2014
     70  C         -4.4630   19.9740   32.5110 C.2   202  GLY202      0.2639
     71  O         -3.4400   19.6120   33.0310 O.2   202  GLY202     -0.2714
     72  N         -4.8600   21.2080   32.5620 N.am  203  CYS203     -0.1967
     73  CA        -3.9690   22.2210   33.1190 C.3   203  CYS203      0.1712
     74  C         -4.6700   22.8980   34.2830 C.2   203  CYS203      0.2296
     75  O         -4.0770   23.7120   34.9510 O.2   203  CYS203     -0.2864
     76  CB        -3.6260   23.2600   32.0340 C.3   203  CYS203      0.0983
     77  SG        -2.9590   22.4530   30.5890 S.3   203  CYS203     -0.0798
     78  N         -6.4000   21.6990   37.1250 N.3   205  ASN205     -0.1225
     79  CA        -6.4050   21.3200   38.5530 C.3   205  ASN205      0.1785
     80  C         -5.1860   21.8810   39.2650 C.2   205  ASN205      0.2597
     81  O         -5.2190   21.9270   40.4540 O.2   205  ASN205     -0.2718
     82  CB        -6.4550   19.8080   38.8040 C.3   205  ASN205      0.1169
     83  CG        -7.5690   19.1320   38.0420 C.2   205  ASN205      0.2627
     84  OD1       -8.7690   19.4640   38.2080 O.2   205  ASN205     -0.2716
     85  ND2       -7.1800   18.2160   37.1190 N.am  205  ASN205     -0.0877
     86  N         -4.0850   22.3040   38.5640 N.am  206  CYS206     -0.1956
     87  CA        -2.9640   23.0360   39.1900 C.3   206  CYS206      0.1843
     88  C         -2.8960   24.5040   38.7930 C.2   206  CYS206      0.2625
     89  O         -2.2610   25.3110   39.4610 O.2   206  CYS206     -0.2714
     90  CB        -1.6530   22.3690   38.8440 C.3   206  CYS206      0.0997
     91  SG        -1.7020   20.5930   39.0590 S.3   206  CYS206     -0.0797
     92  N         -3.5430   24.8890   37.7090 N.am  207  HIS207     -0.1973
     93  CA        -3.6260   26.3170   37.4180 C.3   207  HIS207      0.1656
     94  C         -5.0660   26.7960   37.4110 C.2   207  HIS207      0.2291
     95  O         -5.9870   26.0800   37.0280 O.2   207  HIS207     -0.2864
     96  CB        -2.9520   26.6530   36.0720 C.3   207  HIS207      0.0771
     97  CG        -1.5150   26.2340   35.9950 C.ar  207  HIS207      0.0820
     98  ND1       -0.4870   26.9920   36.5410 N.ar  207  HIS207     -0.2267
     99  CD2       -0.9260   25.1520   35.4180 C.ar  207  HIS207      0.1154
    100  CE1        0.6710   26.3900   36.2960 C.ar  207  HIS207      0.1986
    101  NE2        0.4390   25.2870   35.6020 N.ar  207  HIS207     -0.2212
    102  N         -5.0820   25.6560   26.5970 N.3   226  CYS226     -0.1221
    103  CA        -3.8230   26.1280   27.1800 C.3   226  CYS226      0.1808
    104  C         -2.6440   25.6700   26.3580 C.2   226  CYS226      0.2601
    105  O         -1.6830   26.4090   26.1240 O.2   226  CYS226     -0.2717
    106  CB        -3.6250   25.6190   28.6500 C.3   226  CYS226      0.0970
    107  SG        -5.0750   25.6700   29.7030 S.3   226  CYS226     -0.0800
    108  N         -2.6850   24.3920   25.9820 N.am  227  GLN227     -0.1979
    109  CA        -1.5950   23.7360   25.2410 C.3   227  GLN227      0.1601
    110  C         -1.2540   24.5060   23.9780 C.2   227  GLN227      0.2287
    111  O         -0.1160   24.5880   23.5870 O.2   227  GLN227     -0.2864
    112  CB        -2.0630   22.3170   24.8450 C.3   227  GLN227      0.0394
    113  CG        -2.0850   21.3000   26.0370 C.3   227  GLN227      0.0908
    114  CD        -3.4070   21.2140   26.6760 C.2   227  GLN227      0.2608
    115  OE1       -4.1780   22.2090   26.6880 O.2   227  GLN227     -0.2717
    116  NE2       -3.7520   20.0070   27.1660 N.am  227  GLN227     -0.0878
    117  N          1.0500   27.5460   24.9680 N.3   230  HIS230     -0.1241
    118  CA         2.1180   27.2020   25.8870 C.3   230  HIS230      0.1621
    119  C          2.9980   26.0790   25.4240 C.2   230  HIS230      0.2264
    120  O          4.0080   25.7690   26.0700 O.2   230  HIS230     -0.2867
    121  CB         1.4860   26.8740   27.2160 C.3   230  HIS230      0.0745
    122  CG         1.0130   28.1090   27.9200 C.ar  230  HIS230      0.0817
    123  ND1        1.8990   29.0820   28.3350 N.ar  230  HIS230     -0.2268
    124  CD2       -0.2190   28.5670   28.2190 C.ar  230  HIS230      0.1154
    125  CE1        1.2330   30.0740   28.8770 C.ar  230  HIS230      0.1986
    126  NE2       -0.0460   29.7650   28.8720 N.ar  230  HIS230     -0.2212
    127  N          0.9480   17.5680   24.2110 N.3   393  ASN393     -0.1240
    128  CA         0.6490   17.9220   25.5770 C.3   393  ASN393      0.1653
    129  C          1.8280   18.2270   26.4720 C.2   393  ASN393      0.2266
    130  O          1.6020   18.7440   27.5870 O.2   393  ASN393     -0.2867
    131  CB        -0.2090   16.8310   26.2770 C.3   393  ASN393      0.1155
    132  CG        -1.6080   16.7080   25.6540 C.2   393  ASN393      0.2627
    133  OD1       -2.5230   17.5060   25.8920 O.2   393  ASN393     -0.2716
    134  ND2       -1.7570   15.6790   24.8600 N.am  393  ASN393     -0.0877
    135  N          5.7730   21.9920   27.7360 N.3   396  VAL396     -0.1231
    136  CA         5.2880   23.3330   27.9850 C.3   396  VAL396      0.1692
    137  C          6.5550   24.2290   28.1590 C.2   396  VAL396      0.2593
    138  O          7.4900   23.8560   28.8650 O.2   396  VAL396     -0.2718
    139  CB         4.3470   23.3830   29.2010 C.3   396  VAL396      0.0266
    140  CG1        4.0810   24.8780   29.6260 C.3   396  VAL396      0.0020
    141  CG2        2.9820   22.6030   28.8840 C.3   396  VAL396      0.0020
    142  N          6.6240   25.3420   27.4170 N.am  397  SER397     -0.1939
    143  CA         7.7910   26.2380   27.4490 C.3   397  SER397      0.2040
    144  C          7.6300   27.2630   28.5850 C.2   397  SER397      0.2485
    145  O          6.4820   27.4930   29.0160 O.2   397  SER397     -0.2729
    146  CB         7.8170   27.0150   26.1360 C.3   397  SER397      0.2129
    147  OG         8.1110   26.0920   25.1280 O.3   397  SER397     -0.2179
    148  N          8.7250   27.9380   29.0190 N.am  398  PRO398     -0.2715
    149  CA         8.5580   29.0620   29.9770 C.3   398  PRO398      0.1536
    150  C          7.5930   30.0750   29.4610 C.2   398  PRO398      0.2598
    151  O          7.4130   30.1370   28.2420 O.2   398  PRO398     -0.2715
    152  CB         9.9610   29.6950   30.0900 C.3   398  PRO398      0.0310
    153  CG        10.9090   28.6090   29.7390 C.3   398  PRO398      0.0237
    154  CD        10.1540   27.6950   28.6690 C.3   398  PRO398      0.0939
    155  N          7.0120   30.8560   30.3620 N.am  399  LYS399     -0.1964
    156  CA         5.9480   31.7880   30.0240 C.3   399  LYS399      0.1728
    157  C          6.3760   32.8340   28.9700 C.2   399  LYS399      0.2616
    158  O          5.5530   33.2860   28.1550 O.2   399  LYS399     -0.2715
    159  CB         5.4340   32.4320   31.3130 C.3   399  LYS399      0.0311
    160  CG         6.5130   33.2730   32.0370 C.3   399  LYS399      0.0038
    161  CD         6.0030   33.8100   33.3680 C.3   399  LYS399      0.0206
    162  CE         6.9460   34.9350   33.9350 C.3   399  LYS399      0.1093
    163  NZ         8.1800   34.2660   34.5580 N.3   399  LYS399     -0.1314
    164  N          7.6770   33.1390   28.9430 N.am  400  GLU400     -0.1977
    165  CA         8.2350   34.1480   27.9980 C.3   400  GLU400      0.1602
    166  C          8.1710   33.6800   26.5220 C.2   400  GLU400      0.2287
    167  O          8.2520   34.4980   25.6290 O.2   400  GLU400     -0.2864
    168  CB         9.7050   34.6020   28.3830 C.3   400  GLU400      0.0415
    169  CG         9.8180   35.2800   29.7290 C.3   400  GLU400      0.1163
    170  CD         9.8930   34.3110   30.9290 C.2   400  GLU400      0.3649
    171  OE1        9.6950   34.8260   32.0730 O.co2 400  GLU400     -0.2457
    172  OE2       10.1760   33.0640   30.7630 O.co2 400  GLU400     -0.2457
@<TRIPOS>BOND
     1   111   110    2
     2   110   109    1
     3   127   128    1
     4   112   109    1
     5   112   113    1
     6   134   132   am
     7   117   118    1
     8   147   146    1
     9   109   108    1
    10   119   118    1
    11   119   120    2
    12   128   131    1
    13   128   129    1
    14   167   166    2
    15   132   133    2
    16   132   131    1
    17   118   121    1
    18   108   104   am
    19   113   114    1
    20   105   104    2
    21   146   143    1
    22   104   103    1
    23   129   130    2
    24   166   165    1
    25   102   103    1
    26   114   115    2
    27   114   116   am
    28   103   106    1
    29   121   122    1
    30   142   143    1
    31   142   137   am
    32   143   144    1
    33   135   136    1
    34   122   124   ar
    35   122   123   ar
    36   136   137    1
    37   136   139    1
    38   165   168    1
    39   165   164    1
    40   158   157    2
    41   137   138    2
    42   124   126   ar
    43   151   150    2
    44   123   125   ar
    45   168   169    1
    46   144   145    2
    47   144   148   am
    48   106   107    1
    49   154   148    1
    50   154   153    1
    51   126   125   ar
    52   141   139    1
    53   164   157   am
    54   157   156    1
    55   148   149    1
    56   139   140    1
    57   150   149    1
    58   150   155   am
    59   169   170    1
    60   153   152    1
    61   149   152    1
    62   156   155    1
    63   156   159    1
    64     4     3    2
    65     3     2    1
    66    77    76    1
    67   172   170   ar
    68   170   171   ar
    69   159   160    1
    70    10    11    1
    71    63    62    2
    72    15    14    1
    73     1     2    1
    74     2     5    1
    75    69    70    1
    76    69    68    1
    77    76    73    1
    78   160   161    1
    79    70    72   am
    80    70    71    2
    81    16    14    1
    82    72    73    1
    83     5     6    1
    84    11    14    1
    85    11    12    1
    86    23    25   ar
    87    23    22   ar
    88    25    26   ar
    89    62    68   am
    90    62    61    1
    91    67    65    1
    92    73    74    1
    93    60    61    1
    94     6     7    1
    95   161   162    1
    96    64    65    1
    97    64    61    1
    98    64    66    1
    99    17    12   am
   100    17    18    1
   101    12    13    2
   102   162   163    1
   103     7     8    1
   104    22    21    1
   105    22    24   ar
   106    26    24   ar
   107     9     8    1
   108    21    18    1
   109    74    75    2
   110    18    19    1
   111    19    20    2
   112    58    59    1
   113    58    55    1
   114    99   101   ar
   115    99    97   ar
   116   101   100   ar
   117    97    96    1
   118    97    98   ar
   119    96    93    1
   120   100    98   ar
   121    56    57    2
   122    56    55    1
   123    38    37    2
   124    55    54    1
   125    95    94    2
   126    85    83   am
   127    78    79    1
   128    39    40    1
   129    39    36    1
   130    42    44   ar
   131    42    40   ar
   132    54    48   am
   133    94    93    1
   134    93    92    1
   135    37    36    1
   136    92    88   am
   137    44    45   ar
   138    34    32   am
   139    35    36    1
   140    40    41   ar
   141    83    84    2
   142    83    82    1
   143    79    82    1
   144    79    80    1
   145    86    87    1
   146    86    80   am
   147    48    49    2
   148    48    47    1
   149    31    32    1
   150    31    28    1
   151    46    47    1
   152    88    87    1
   153    88    89    2
   154    27    28    1
   155    90    91    1
   156    90    87    1
   157    32    33    2
   158    45    43   ar
   159    41    43   ar
   160    80    81    2
   161    50    47    1
   162    50    51    1
   163    28    29    1
   164    29    30    2
   165    53    51   am
   166    51    52    2
