@<TRIPOS>MOLECULE
tmp/1sp3A00.pdb
 135 130 0 0 0
SMALL
GASTEIGER

@<TRIPOS>ATOM
      1  N         11.1990    0.0660   55.3840 N.3     1  ALA1       -0.1231
      2  CA        11.9170   -0.7450   54.3860 C.3     1  ALA1        0.1694
      3  C         11.0090   -1.9290   53.9820 C.2     1  ALA1        0.2592
      4  O         10.2680   -2.4820   54.8120 O.2     1  ALA1       -0.2718
      5  CB        13.2220   -1.2370   54.9720 C.3     1  ALA1        0.0304
      6  N         11.0400   -2.3120   52.7290 N.am    2  ASN2       -0.1961
      7  CA        10.3210   -3.4930   52.2990 C.3     2  ASN2        0.1804
      8  C         11.2930   -4.6890   52.2740 C.2     2  ASN2        0.2463
      9  O         12.4940   -4.4500   52.4700 O.2     2  ASN2       -0.2730
     10  CB         9.6440   -3.2460   50.9580 C.3     2  ASN2        0.1195
     11  CG        10.5870   -2.7750   49.8900 C.2     2  ASN2        0.2630
     12  OD1       10.3830   -1.7040   49.2900 O.2     2  ASN2       -0.2716
     13  ND2       11.6200   -3.5440   49.6400 N.am    2  ASN2       -0.0877
     14  N         10.7930   -5.9320   52.0500 N.am    3  PRO3       -0.2716
     15  CA        11.5970   -7.1410   52.0460 C.3     3  PRO3        0.1536
     16  C         12.4860   -7.3730   50.8230 C.2     3  PRO3        0.2598
     17  O         13.2480   -8.3810   50.8490 O.2     3  PRO3       -0.2715
     18  CB        10.5280   -8.2460   52.0040 C.3     3  PRO3        0.0310
     19  CG         9.3580   -7.6380   52.3730 C.3     3  PRO3        0.0237
     20  CD         9.3920   -6.2760   51.7770 C.3     3  PRO3        0.0939
     21  N         12.3790   -6.5350   49.7730 N.am    4  HIS4       -0.1974
     22  CA        12.9680   -6.8770   48.4510 C.3     4  HIS4        0.1656
     23  C         14.4020   -7.4260   48.4860 C.2     4  HIS4        0.2291
     24  O         14.6960   -8.4620   47.8990 O.2     4  HIS4       -0.2864
     25  CB        12.9340   -5.6760   47.4870 C.3     4  HIS4        0.0771
     26  CG        11.5530   -5.1920   47.1770 C.ar    4  HIS4        0.0820
     27  ND1       11.3040   -3.8940   46.7990 N.ar    4  HIS4       -0.2267
     28  CD2       10.3440   -5.8100   47.2490 C.ar    4  HIS4        0.1154
     29  CE1        9.9990   -3.7350   46.6330 C.ar    4  HIS4        0.1986
     30  NE2        9.3990   -4.8850   46.8900 N.ar    4  HIS4       -0.2212
     31  N         14.6170  -10.9510   49.8480 N.3     7  VAL7       -0.1231
     32  CA        13.8400  -12.0820   49.3020 C.3     7  VAL7        0.1692
     33  C         14.0940  -12.4460   47.8080 C.2     7  VAL7        0.2591
     34  O         13.6050  -13.4770   47.3160 O.2     7  VAL7       -0.2718
     35  CB        12.3250  -11.9660   49.6210 C.3     7  VAL7        0.0266
     36  CG1       11.6010  -13.1490   49.0480 C.3     7  VAL7        0.0020
     37  CG2       12.0590  -11.9600   51.1490 C.3     7  VAL7        0.0020
     38  N         14.8530  -11.6090   47.1040 N.am    8  LEU8       -0.1980
     39  CA        14.9180  -11.7370   45.6550 C.3     8  LEU8        0.1596
     40  C         16.3410  -12.0320   45.2390 C.2     8  LEU8        0.2287
     41  O         16.8180  -11.4420   44.2670 O.2     8  LEU8       -0.2864
     42  CB        14.4310  -10.4520   44.9490 C.3     8  LEU8        0.0297
     43  CG        12.9700  -10.0720   45.1460 C.3     8  LEU8        0.0022
     44  CD1       12.6980   -8.6160   44.7830 C.3     8  LEU8        0.0001
     45  CD2       11.9900  -11.0300   44.4460 C.3     8  LEU8        0.0001
     46  N         11.2330  -13.8710   37.4790 N.3    18  VAL18      -0.1245
     47  CA        11.2080  -12.7320   38.3510 C.3    18  VAL18       0.1561
     48  C          9.7820  -12.4800   38.7350 C.2    18  VAL18       0.2260
     49  O          9.5020  -12.3160   39.9070 O.2    18  VAL18      -0.2867
     50  CB        11.8640  -11.4820   37.7760 C.3    18  VAL18       0.0252
     51  CG1       11.7260  -10.2940   38.7600 C.3    18  VAL18       0.0019
     52  CG2       13.3720  -11.7510   37.5090 C.3    18  VAL18       0.0019
     53  N          8.1600  -14.6400   41.3210 N.3    21  GLN21      -0.1231
     54  CA         8.4480  -14.1490   42.6730 C.3    21  GLN21       0.1698
     55  C          7.5470  -12.9750   43.1500 C.2    21  GLN21       0.2592
     56  O          6.8650  -13.1040   44.2250 O.2    21  GLN21      -0.2718
     57  CB         9.9190  -13.7900   42.8050 C.3    21  GLN21       0.0381
     58  CG        10.7980  -15.1130   42.8820 C.3    21  GLN21       0.0905
     59  CD        10.2020  -16.1320   43.8820 C.2    21  GLN21       0.2608
     60  OE1        9.9800  -15.7960   45.0640 O.2    21  GLN21      -0.2717
     61  NE2        9.9060  -17.3630   43.4000 N.am   21  GLN21      -0.0878
     62  N          7.5250  -11.8640   42.3770 N.am   22  CYS22      -0.1970
     63  CA         6.7230  -10.6730   42.7280 C.3    22  CYS22       0.1712
     64  C          5.2910  -11.0510   43.1260 C.2    22  CYS22       0.2296
     65  O          4.7110  -10.5490   44.0840 O.2    22  CYS22      -0.2864
     66  CB         6.6630   -9.6820   41.5580 C.3    22  CYS22       0.0983
     67  SG         8.2470   -9.2590   40.8270 S.3    22  CYS22      -0.0798
     68  N          4.3160  -13.6860   44.7220 N.3    24  THR24      -0.1203
     69  CA         4.0790  -14.2900   46.0680 C.3    24  THR24       0.1994
     70  C          3.4920  -13.1990   47.0210 C.2    24  THR24       0.2618
     71  O          2.7870  -13.5180   47.9780 O.2    24  THR24      -0.2717
     72  CB         5.3710  -14.9480   46.6600 C.3    24  THR24       0.1784
     73  OG1        6.5090  -14.0570   46.5580 O.3    24  THR24      -0.2211
     74  CG2        5.8040  -16.1960   45.7970 C.3    24  THR24       0.0376
     75  N          3.7250  -11.9070   46.7060 N.am   25  CYS25      -0.1955
     76  CA         3.2540  -10.8220   47.5500 C.3    25  CYS25       0.1843
     77  C          2.4430   -9.7770   46.8280 C.2    25  CYS25       0.2625
     78  O          1.7480   -9.0180   47.4990 O.2    25  CYS25      -0.2714
     79  CB         4.4670  -10.1450   48.1480 C.3    25  CYS25       0.0997
     80  SG         5.6000  -11.1790   49.2110 S.3    25  CYS25      -0.0797
     81  N          2.5160   -9.6910   45.4790 N.am   26  HIS26      -0.1973
     82  CA         1.8580   -8.6170   44.7590 C.3    26  HIS26       0.1656
     83  C          0.8830   -9.1530   43.7010 C.2    26  HIS26       0.2291
     84  O          0.6720   -8.5200   42.6610 O.2    26  HIS26      -0.2864
     85  CB         2.8920   -7.6760   44.0790 C.3    26  HIS26       0.0771
     86  CG         3.7910   -6.9390   45.0450 C.ar   26  HIS26       0.0820
     87  ND1        3.3130   -6.0620   46.0010 N.ar   26  HIS26      -0.2267
     88  CD2        5.1420   -6.9560   45.1990 C.ar   26  HIS26       0.1154
     89  CE1        4.3290   -5.5370   46.6630 C.ar   26  HIS26       0.1986
     90  NE2        5.4510   -6.0630   46.2030 N.ar   26  HIS26      -0.2212
     91  N          6.9930   -6.4950   35.5530 N.3    98  CYS98      -0.1221
     92  CA         6.9910   -5.6540   36.7360 C.3    98  CYS98       0.1808
     93  C          8.1790   -4.8200   36.7960 C.2    98  CYS98       0.2601
     94  O          8.1420   -3.8260   37.4590 O.2    98  CYS98      -0.2717
     95  CB         6.9910   -6.4370   38.0630 C.3    98  CYS98       0.0970
     96  SG         5.5310   -7.4360   38.1400 S.3    98  CYS98      -0.0800
     97  N          9.2300   -5.1830   36.0830 N.am   99  LEU99      -0.1979
     98  CA        10.4890   -4.4380   36.1340 C.3    99  LEU99       0.1596
     99  C         10.5960   -3.2010   35.2440 C.2    99  LEU99       0.2287
    100  O         11.3590   -2.2490   35.5830 O.2    99  LEU99      -0.2864
    101  CB        11.6160   -5.4060   35.7740 C.3    99  LEU99       0.0297
    102  CG        11.5730   -6.6500   36.6480 C.3    99  LEU99       0.0022
    103  CD1       12.5670   -7.6790   36.0250 C.3    99  LEU99       0.0001
    104  CD2       11.8970   -6.3260   38.1530 C.3    99  LEU99       0.0001
    105  N          9.4480   -0.2330   37.2290 N.3   102  HIS102     -0.1241
    106  CA         9.9140   -0.1560   38.6290 C.3   102  HIS102      0.1621
    107  C         11.4100   -0.3180   38.8160 C.2   102  HIS102      0.2264
    108  O         11.8870   -0.1400   39.9230 O.2   102  HIS102     -0.2867
    109  CB         9.1470   -1.1800   39.4810 C.3   102  HIS102      0.0745
    110  CG         7.6940   -0.8050   39.6920 C.ar  102  HIS102      0.0817
    111  ND1        7.3160    0.3440   40.3470 N.ar  102  HIS102     -0.2268
    112  CD2        6.5420   -1.4280   39.3570 C.ar  102  HIS102      0.1154
    113  CE1        5.9960    0.4280   40.4060 C.ar  102  HIS102      0.1986
    114  NE2        5.5010   -0.6580   39.8460 N.ar  102  HIS102     -0.2212
    115  N         15.7400   -6.8140   40.3340 N.3   128  ALA128     -0.1245
    116  CA        14.5750   -7.1050   41.1810 C.3   128  ALA128      0.1562
    117  C         14.7320   -6.5660   42.5880 C.2   128  ALA128      0.2260
    118  O         13.7750   -6.0850   43.1330 O.2   128  ALA128     -0.2867
    119  CB        14.3410   -8.5740   41.2960 C.3   128  ALA128      0.0290
    120  N         14.1230   -2.5380   42.9020 N.3   131  VAL131     -0.1231
    121  CA        12.8760   -2.0500   42.3070 C.3   131  VAL131      0.1692
    122  C         12.3190   -0.9470   43.2320 C.2   131  VAL131      0.2593
    123  O         12.4860   -0.9960   44.4600 O.2   131  VAL131     -0.2718
    124  CB        12.0910   -3.3510   42.2280 C.3   131  VAL131      0.0266
    125  CG1       10.9070   -3.4810   43.0850 C.3   131  VAL131      0.0020
    126  CG2       12.0560   -3.9870   40.8260 C.3   131  VAL131      0.0020
    127  N         11.6690    0.0570   42.6580 N.am  132  GLY132     -0.1942
    128  CA        11.0330    1.0780   43.4570 C.3   132  GLY132      0.2014
    129  C         10.0810    1.9440   42.5990 C.2   132  GLY132      0.2638
    130  O          9.5670    1.4820   41.5630 O.2   132  GLY132     -0.2714
    131  N          9.8880    3.2000   43.0060 N.am  133  ALA133     -0.1977
    132  CA         8.8680    4.0160   42.3740 C.3   133  ALA133      0.1597
    133  C          9.4060    4.3910   41.0000 C.2   133  ALA133      0.2287
    134  O         10.6340    4.6050   40.8530 O.2   133  ALA133     -0.2864
    135  CB         8.5540    5.2280   43.2550 C.3   133  ALA133      0.0319
@<TRIPOS>BOND
     1    99   100    2
     2    99    98    1
     3    91    92    1
     4   101    98    1
     5   101   102    1
     6   103   102    1
     7    97    98    1
     8    97    93   am
     9   102   104    1
    10    92    93    1
    11    92    95    1
    12    93    94    2
    13   105   106    1
    14    46    47    1
    15    52    50    1
    16    50    47    1
    17    50    51    1
    18    95    96    1
    19    47    48    1
    20   106   107    1
    21   106   109    1
    22    48    49    2
    23   107   108    2
    24   112   110   ar
    25   112   114   ar
    26   109   110    1
    27   110   111   ar
    28   114   113   ar
    29   115   116    1
    30   111   113   ar
    31   126   124    1
    32    67    66    1
    33   134   133    2
    34   133   132    1
    35   116   119    1
    36   116   117    1
    37    53    54    1
    38    66    63    1
    39   130   129    2
    40   124   121    1
    41   124   125    1
    42   121   120    1
    43   121   122    1
    44   132   131    1
    45   132   135    1
    46    62    63    1
    47    62    55   am
    48   117   118    2
    49   129   131   am
    50   129   128    1
    51   127   122   am
    52   127   128    1
    53    84    83    2
    54    54    57    1
    55    54    55    1
    56    63    64    1
    57    57    58    1
    58    58    59    1
    59    64    65    2
    60    55    56    2
    61   122   123    2
    62    61    59   am
    63    83    82    1
    64    59    60    2
    65    85    82    1
    66    85    86    1
    67    41    40    2
    68    45    43    1
    69    68    69    1
    70    82    81    1
    71    44    43    1
    72    42    43    1
    73    42    39    1
    74    86    88   ar
    75    86    87   ar
    76    88    90   ar
    77    40    39    1
    78    81    77   am
    79    39    38    1
    80    74    72    1
    81    87    89   ar
    82    69    72    1
    83    69    70    1
    84    90    89   ar
    85    73    72    1
    86    29    27   ar
    87    29    30   ar
    88    75    70   am
    89    75    76    1
    90    27    26   ar
    91    77    78    2
    92    77    76    1
    93    30    28   ar
    94    70    71    2
    95    38    33   am
    96    26    28   ar
    97    26    25    1
    98    34    33    2
    99    25    22    1
   100    76    79    1
   101    33    32    1
   102    24    23    2
   103    79    80    1
   104    22    23    1
   105    22    21    1
   106    36    35    1
   107    12    11    2
   108    32    35    1
   109    32    31    1
   110    35    37    1
   111    13    11   am
   112    21    16   am
   113    11    10    1
   114    16    17    2
   115    16    15    1
   116    10     7    1
   117    20    14    1
   118    20    19    1
   119    18    15    1
   120    18    19    1
   121    15    14    1
   122    14     8   am
   123     8     7    1
   124     8     9    2
   125     7     6    1
   126     6     3   am
   127     3     2    1
   128     3     4    2
   129     2     5    1
   130     2     1    1
