@<TRIPOS>MOLECULE
tmp/1sp3A02.pdb
 174 164 0 0 0
SMALL
GASTEIGER

@<TRIPOS>ATOM
      1  N          8.8770  -12.4890   37.7550 N.3    19  THR19      -0.1218
      2  CA         7.5210  -12.0510   38.0290 C.3    19  THR19       0.1862
      3  C          6.8820  -13.0400   38.9620 C.2    19  THR19       0.2287
      4  O          6.0580  -12.6510   39.8200 O.2    19  THR19      -0.2866
      5  CB         6.6390  -11.9390   36.7460 C.3    19  THR19       0.1770
      6  OG1        7.0770  -10.8320   36.0030 O.3    19  THR19      -0.2211
      7  CG2        5.1630  -11.5110   37.1040 C.3    19  THR19       0.0375
      8  N          7.5250  -11.8640   42.3770 N.3    22  CYS22      -0.1221
      9  CA         6.7230  -10.6730   42.7280 C.3    22  CYS22       0.1808
     10  C          5.2910  -11.0510   43.1260 C.2    22  CYS22       0.2601
     11  O          4.7110  -10.5490   44.0840 O.2    22  CYS22      -0.2717
     12  CB         6.6630   -9.6820   41.5580 C.3    22  CYS22       0.0970
     13  SG         8.2470   -9.2590   40.8270 S.3    22  CYS22      -0.0800
     14  N          4.7170  -11.9600   42.3860 N.am   23  LEU23      -0.1979
     15  CA         3.3800  -12.4540   42.7260 C.3    23  LEU23       0.1596
     16  C          3.2700  -13.2000   44.0870 C.2    23  LEU23       0.2287
     17  O          2.2260  -13.3560   44.5400 O.2    23  LEU23      -0.2864
     18  CB         2.8940  -13.4210   41.6470 C.3    23  LEU23       0.0297
     19  CG         2.9130  -12.8910   40.2220 C.3    23  LEU23       0.0022
     20  CD1        2.7680  -14.0770   39.2480 C.3    23  LEU23       0.0001
     21  CD2        1.7580  -11.9770   40.0600 C.3    23  LEU23       0.0001
     22  N          2.5160   -9.6910   45.4790 N.3    26  HIS26      -0.1241
     23  CA         1.8580   -8.6170   44.7590 C.3    26  HIS26       0.1621
     24  C          0.8830   -9.1530   43.7010 C.2    26  HIS26       0.2264
     25  O          0.6720   -8.5200   42.6610 O.2    26  HIS26      -0.2867
     26  CB         2.8920   -7.6760   44.0790 C.3    26  HIS26       0.0745
     27  CG         3.7910   -6.9390   45.0450 C.ar   26  HIS26       0.0817
     28  ND1        3.3130   -6.0620   46.0010 N.ar   26  HIS26      -0.2268
     29  CD2        5.1420   -6.9560   45.1990 C.ar   26  HIS26       0.1154
     30  CE1        4.3290   -5.5370   46.6630 C.ar   26  HIS26       0.1986
     31  NE2        5.4510   -6.0630   46.2030 N.ar   26  HIS26      -0.2212
     32  N         -1.5550   -6.3310   42.6160 N.3    29  GLN29      -0.1231
     33  CA        -1.0100   -5.3780   41.6470 C.3    29  GLN29       0.1698
     34  C         -1.0440   -5.9730   40.2290 C.2    29  GLN29       0.2592
     35  O         -1.3920   -5.3010   39.2990 O.2    29  GLN29      -0.2718
     36  CB         0.4460   -5.1280   42.0660 C.3    29  GLN29       0.0381
     37  CG         0.6800   -4.1370   43.2610 C.3    29  GLN29       0.0905
     38  CD         0.1660   -4.6470   44.5970 C.2    29  GLN29       0.2608
     39  OE1        0.2860   -5.7980   44.9050 O.2    29  GLN29      -0.2717
     40  NE2       -0.3770   -3.7650   45.3860 N.am   29  GLN29      -0.0878
     41  N         -0.6890   -7.2490   40.0640 N.am   30  ALA30      -0.1980
     42  CA        -0.7560   -7.9050   38.7580 C.3    30  ALA30       0.1597
     43  C         -2.1930   -7.8980   38.2600 C.2    30  ALA30       0.2287
     44  O         -2.4920   -7.4760   37.1400 O.2    30  ALA30      -0.2864
     45  CB        -0.1820   -9.2630   38.8300 C.3    30  ALA30       0.0319
     46  N         -3.1980   -4.3930   37.2560 N.3    33  MET33      -0.1245
     47  CA        -2.5040   -3.8500   36.1200 C.3    33  MET33       0.1570
     48  C         -3.0990   -4.5010   34.8660 C.2    33  MET33       0.2261
     49  O         -3.2740   -3.8700   33.7710 O.2    33  MET33      -0.2867
     50  CB        -1.0220   -4.1570   36.2810 C.3    33  MET33       0.0387
     51  CG        -0.0400   -3.1140   35.6310 C.3    33  MET33       0.0595
     52  SD         0.0380   -3.4450   33.8210 S.3    33  MET33      -0.1393
     53  CE         0.1120   -5.2630   34.0770 C.3    33  MET33       0.0692
     54  N         -2.3180   -0.8000   29.5440 N.3    38  HIS38      -0.1241
     55  CA        -0.8590   -1.1170   29.4820 C.3    38  HIS38       0.1621
     56  C         -0.6210   -2.5950   29.2910 C.2    38  HIS38       0.2264
     57  O          0.3950   -2.9840   28.8460 O.2    38  HIS38      -0.2867
     58  CB        -0.1200   -0.6120   30.7110 C.3    38  HIS38       0.0745
     59  CG         0.3980    0.7780   30.5120 C.ar   38  HIS38       0.0817
     60  ND1       -0.1900    1.8780   31.0950 N.ar   38  HIS38      -0.2268
     61  CD2        1.3560    1.2580   29.6780 C.ar   38  HIS38       0.1154
     62  CE1        0.4320    2.9720   30.6750 C.ar   38  HIS38       0.1986
     63  NE2        1.3690    2.6250   29.8100 N.ar   38  HIS38      -0.2212
     64  N          4.2110   -4.1290   28.3910 N.3    79  ALA79      -0.1245
     65  CA         4.5410   -4.4110   29.7930 C.3    79  ALA79       0.1562
     66  C          4.2980   -5.9080   30.1310 C.2    79  ALA79       0.2260
     67  O          3.6550   -6.2340   31.1520 O.2    79  ALA79      -0.2867
     68  CB         3.7170   -3.4780   30.7390 C.3    79  ALA79       0.0290
     69  N          3.4670  -10.7250   33.3170 N.3    96  VAL96      -0.1231
     70  CA         3.4780   -9.2540   33.4130 C.3    96  VAL96       0.1692
     71  C          4.8870   -8.8320   33.5820 C.2    96  VAL96       0.2592
     72  O          5.6400   -9.5640   34.1890 O.2    96  VAL96      -0.2718
     73  CB         2.6100   -8.8160   34.5790 C.3    96  VAL96       0.0266
     74  CG1        2.6420   -7.2930   34.7900 C.3    96  VAL96       0.0020
     75  CG2        1.2040   -9.3540   34.3120 C.3    96  VAL96       0.0020
     76  N          5.2760   -7.6900   33.0080 N.am   97  ASP97      -0.1960
     77  CA         6.6060   -7.1720   33.2460 C.3    97  ASP97       0.1840
     78  C          6.5300   -6.1260   34.3710 C.2    97  ASP97       0.2622
     79  O          5.9760   -5.0390   34.1800 O.2    97  ASP97      -0.2715
     80  CB         7.1670   -6.6160   31.9070 C.3    97  ASP97       0.1450
     81  CG         8.6320   -6.1040   32.0220 C.2    97  ASP97       0.3671
     82  OD1        9.1360   -5.7940   33.1680 O.co2  97  ASP97      -0.2456
     83  OD2        9.3540   -5.9630   30.9820 O.co2  97  ASP97      -0.2456
     84  N          6.9930   -6.4950   35.5530 N.am   98  CYS98      -0.1968
     85  CA         6.9910   -5.6540   36.7360 C.3    98  CYS98       0.1712
     86  C          8.1790   -4.8200   36.7960 C.2    98  CYS98       0.2296
     87  O          8.1420   -3.8260   37.4590 O.2    98  CYS98      -0.2864
     88  CB         6.9910   -6.4370   38.0630 C.3    98  CYS98       0.0983
     89  SG         5.5310   -7.4360   38.1400 S.3    98  CYS98      -0.0798
     90  N          9.8900   -3.2140   34.1100 N.3   100  ILE100     -0.1231
     91  CA        10.0610   -2.1250   33.1880 C.3   100  ILE100      0.1692
     92  C          9.6470   -0.7590   33.8440 C.2   100  ILE100      0.2592
     93  O         10.3190    0.2640   33.6500 O.2   100  ILE100     -0.2718
     94  CB         9.3900   -2.4190   31.8350 C.3   100  ILE100      0.0266
     95  CG1        9.6540   -1.3150   30.7760 C.3   100  ILE100      0.0019
     96  CG2        7.9120   -2.6260   32.0050 C.3   100  ILE100      0.0020
     97  CD1       10.9720   -1.4790   30.1820 C.3   100  ILE100      0.0001
     98  N          8.6170   -0.7310   34.6740 N.am  101  CYS101     -0.1956
     99  CA         8.2580    0.5500   35.2970 C.3   101  CYS101      0.1843
    100  C          8.9460    0.8070   36.6140 C.2   101  CYS101      0.2625
    101  O          8.9440    1.9180   37.0920 O.2   101  CYS101     -0.2714
    102  CB         6.7540    0.6580   35.5200 C.3   101  CYS101      0.0997
    103  SG         5.8290    0.6560   33.9320 S.3   101  CYS101     -0.0797
    104  N          9.4480   -0.2330   37.2290 N.am  102  HIS102     -0.1973
    105  CA         9.9140   -0.1560   38.6290 C.3   102  HIS102      0.1656
    106  C         11.4100   -0.3180   38.8160 C.2   102  HIS102      0.2291
    107  O         11.8870   -0.1400   39.9230 O.2   102  HIS102     -0.2864
    108  CB         9.1470   -1.1800   39.4810 C.3   102  HIS102      0.0771
    109  CG         7.6940   -0.8050   39.6920 C.ar  102  HIS102      0.0820
    110  ND1        7.3160    0.3440   40.3470 N.ar  102  HIS102     -0.2267
    111  CD2        6.5420   -1.4280   39.3570 C.ar  102  HIS102      0.1154
    112  CE1        5.9960    0.4280   40.4060 C.ar  102  HIS102      0.1986
    113  NE2        5.5010   -0.6580   39.8460 N.ar  102  HIS102     -0.2212
    114  N          9.8880    3.2000   43.0060 N.3   133  ALA133     -0.1231
    115  CA         8.8680    4.0160   42.3740 C.3   133  ALA133      0.1679
    116  C          9.4060    4.3910   41.0000 C.2   133  ALA133      0.2434
    117  O         10.6340    4.6050   40.8530 O.2   133  ALA133     -0.2733
    118  CB         8.5540    5.2280   43.2550 C.3   133  ALA133      0.0304
    119  N          8.5350    4.3400   39.9830 N.am  134  PRO134     -0.2729
    120  CA         8.9270    4.7520   38.6110 C.3   134  PRO134      0.1401
    121  C          9.3850    6.2260   38.6070 C.2   134  PRO134      0.2269
    122  O          8.7640    7.0900   39.3230 O.2   134  PRO134     -0.2865
    123  CB         7.6010    4.6880   37.7990 C.3   134  PRO134      0.0296
    124  CG         6.6820    3.5380   38.6560 C.3   134  PRO134      0.0237
    125  CD         7.1300    3.8900   40.0930 C.3   134  PRO134      0.0939
    126  N          8.9860    5.2640   32.4010 N.3   139  CYS139     -0.1235
    127  CA         7.9050    5.4380   31.4310 C.3   139  CYS139      0.1677
    128  C          8.5320    5.5480   30.0720 C.2   139  CYS139      0.2270
    129  O          8.0420    4.9640   29.1710 O.2   139  CYS139     -0.2867
    130  CB         7.0460    6.6920   31.7260 C.3   139  CYS139      0.0956
    131  SG         6.5420    6.6420   33.4530 S.3   139  CYS139     -0.0801
    132  N          3.9290   10.5150   36.7770 N.3   176  GLN176     -0.1245
    133  CA         2.7760   10.3020   37.6490 C.3   176  GLN176      0.1566
    134  C          2.4650   11.4860   38.5470 C.2   176  GLN176      0.2260
    135  O          1.4320   11.4630   39.1620 O.2   176  GLN176     -0.2867
    136  CB         2.8800    9.0320   38.5250 C.3   176  GLN176      0.0367
    137  CG         4.0130    9.1290   39.5880 C.3   176  GLN176      0.0905
    138  CD         5.3760    8.6070   39.1230 C.2   176  GLN176      0.2608
    139  OE1        5.7870    8.7780   37.9490 O.2   176  GLN176     -0.2717
    140  NE2        6.0670    7.9300   40.0230 N.am  176  GLN176     -0.0878
    141  N         -1.8640    7.7470   39.5160 N.3   181  THR181     -0.1218
    142  CA        -2.1120    6.3480   39.3420 C.3   181  THR181      0.1862
    143  C         -2.7230    5.7650   40.6100 C.2   181  THR181      0.2287
    144  O         -2.1870    5.9450   41.6960 O.2   181  THR181     -0.2866
    145  CB        -0.7910    5.7040   39.0640 C.3   181  THR181      0.1770
    146  OG1       -0.2800    6.2890   37.8620 O.3   181  THR181     -0.2211
    147  CG2       -0.9230    4.1960   38.8210 C.3   181  THR181      0.0375
    148  N         -4.2540    1.9670   41.8900 N.3   183  LYS183     -0.1231
    149  CA        -4.4600    0.5650   41.4980 C.3   183  LYS183      0.1693
    150  C         -3.9130    0.3020   40.0740 C.2   183  LYS183      0.2592
    151  O         -4.5520   -0.3900   39.2630 O.2   183  LYS183     -0.2718
    152  CB        -5.9560    0.2010   41.5990 C.3   183  LYS183      0.0285
    153  CG        -6.4740    0.0790   43.0770 C.3   183  LYS183      0.0035
    154  CD        -7.9330   -0.5000   43.1250 C.3   183  LYS183      0.0206
    155  CE        -8.6860   -0.1550   44.4360 C.3   183  LYS183      0.1093
    156  NZ        -7.8730   -0.5410   45.6860 N.3   183  LYS183     -0.1314
    157  N         -2.7610    0.8810   39.7650 N.am  184  HIS184     -0.1976
    158  CA        -2.1260    0.7250   38.4890 C.3   184  HIS184      0.1656
    159  C         -2.9650    1.1520   37.3400 C.2   184  HIS184      0.2291
    160  O         -2.6520    0.7730   36.2400 O.2   184  HIS184     -0.2864
    161  CB        -1.7420   -0.7210   38.2630 C.3   184  HIS184      0.0771
    162  CG        -0.4750   -1.0340   38.9280 C.ar  184  HIS184      0.0820
    163  ND1       -0.4240   -1.4260   40.2310 N.ar  184  HIS184     -0.2267
    164  CD2        0.7990   -0.8370   38.5320 C.ar  184  HIS184      0.1154
    165  CE1        0.8440   -1.5670   40.5940 C.ar  184  HIS184      0.1986
    166  NE2        1.6100   -1.2010   39.5720 N.ar  184  HIS184     -0.2212
    167  N         -3.2240    4.2420   35.4200 N.3   186  ILE186     -0.1245
    168  CA        -2.5080    5.4580   35.1740 C.3   186  ILE186      0.1561
    169  C         -3.4510    6.3740   34.4530 C.2   186  ILE186      0.2260
    170  O         -3.9470    6.0620   33.3710 O.2   186  ILE186     -0.2867
    171  CB        -1.2850    5.1290   34.3260 C.3   186  ILE186      0.0252
    172  CG1       -0.3150    4.2340   35.0860 C.3   186  ILE186      0.0019
    173  CG2       -0.5070    6.4110   33.8740 C.3   186  ILE186      0.0019
    174  CD1        0.7540    3.6850   34.2080 C.3   186  ILE186      0.0001
@<TRIPOS>BOND
     1    64    65    1
     2    57    56    2
     3   129   128    2
     4    56    55    1
     5    55    54    1
     6    55    58    1
     7    61    63   ar
     8    61    59   ar
     9    65    66    1
    10    65    68    1
    11    63    62   ar
    12   128   127    1
    13    66    67    2
    14    97    95    1
    15    59    58    1
    16    59    60   ar
    17    62    60   ar
    18    95    94    1
    19    83    81   ar
    20   127   130    1
    21   127   126    1
    22   130   131    1
    23    94    96    1
    24    94    91    1
    25    80    81    1
    26    80    77    1
    27    81    82   ar
    28    76    77    1
    29    76    71   am
    30    91    92    1
    31    91    90    1
    32    77    78    1
    33    69    70    1
    34   170   169    2
    35    70    71    1
    36    70    73    1
    37    71    72    2
    38    93    92    2
    39    49    48    2
    40    52    53    1
    41    52    51    1
    42    92    98   am
    43   173   171    1
    44   103   102    1
    45    79    78    2
    46   174   172    1
    47    75    73    1
    48   171   172    1
    49   171   168    1
    50    78    84   am
    51   169   168    1
    52    73    74    1
    53    98    99    1
    54    48    47    1
    55   168   167    1
    56    99   102    1
    57    99   100    1
    58    84    85    1
    59    51    50    1
    60     6     5    1
    61    47    50    1
    62    47    46    1
    63   160   159    2
    64   100   101    2
    65   100   104   am
    66    85    86    1
    67    85    88    1
    68     5     7    1
    69     5     2    1
    70   132   133    1
    71    86    87    2
    72    44    43    2
    73   104   105    1
    74   159   158    1
    75   133   136    1
    76   133   134    1
    77     1     2    1
    78   123   120    1
    79   123   124    1
    80   146   145    1
    81   139   138    2
    82     2     3    1
    83    88    89    1
    84    43    42    1
    85   161   158    1
    86   161   162    1
    87   158   157    1
    88   136   137    1
    89   164   162   ar
    90   164   166   ar
    91   134   135    2
    92   121   120    1
    93   121   122    2
    94   120   119    1
    95   105   106    1
    96   105   108    1
    97   124   125    1
    98    42    45    1
    99    42    41    1
   100   106   107    2
   101   147   145    1
   102   162   163   ar
   103     3     4    2
   104   145   142    1
   105   138   137    1
   106   138   140   am
   107    20    19    1
   108   151   150    2
   109    35    34    2
   110   142   141    1
   111   142   143    1
   112   111   109   ar
   113   111   113   ar
   114   108   109    1
   115   166   165   ar
   116   109   110   ar
   117   157   150   am
   118   113   112   ar
   119   119   125    1
   120   119   116   am
   121    21    19    1
   122    41    34   am
   123   150   149    1
   124    19    18    1
   125    34    33    1
   126   163   165   ar
   127   110   112   ar
   128   143   144    2
   129    13    12    1
   130   117   116    2
   131   116   115    1
   132   149   152    1
   133   149   148    1
   134    12     9    1
   135   152   153    1
   136    33    36    1
   137    33    32    1
   138    18    15    1
   139    36    37    1
   140   115   114    1
   141   115   118    1
   142     8     9    1
   143    14    15    1
   144    14    10   am
   145    25    24    2
   146    15    16    1
   147     9    10    1
   148   153   154    1
   149   154   155    1
   150    10    11    2
   151    37    38    1
   152    24    23    1
   153    26    23    1
   154    26    27    1
   155    16    17    2
   156   155   156    1
   157    38    39    2
   158    38    40   am
   159    23    22    1
   160    27    29   ar
   161    27    28   ar
   162    29    31   ar
   163    28    30   ar
   164    31    30   ar
