@<TRIPOS>MOLECULE
tmp/1sp3A07.pdb
 208 202 0 0 0
SMALL
GASTEIGER

@<TRIPOS>ATOM
      1  N         -3.3610   39.6530   32.5030 N.3   214  ASN214     -0.1240
      2  CA        -3.9240   40.2380   31.3420 C.3   214  ASN214      0.1653
      3  C         -5.2870   39.5800   31.0120 C.2   214  ASN214      0.2266
      4  O         -5.3400   38.4320   30.5580 O.2   214  ASN214     -0.2867
      5  CB        -2.9730   40.1850   30.1600 C.3   214  ASN214      0.1155
      6  CG        -3.6600   40.6640   28.8640 C.2   214  ASN214      0.2627
      7  OD1       -4.8790   40.9270   28.8460 O.2   214  ASN214     -0.2716
      8  ND2       -2.8750   40.8350   27.8050 N.am  214  ASN214     -0.0877
      9  N         -7.3400   39.8250   28.7290 N.3   216  LYS216     -0.1231
     10  CA        -7.6970   39.5060   27.3610 C.3   216  LYS216      0.1693
     11  C         -7.1750   38.0910   27.1090 C.2   216  LYS216      0.2591
     12  O         -7.7960   37.3170   26.3850 O.2   216  LYS216     -0.2718
     13  CB        -7.0920   40.5310   26.4150 C.3   216  LYS216      0.0285
     14  CG        -7.0520   40.0830   24.9620 C.3   216  LYS216      0.0035
     15  CD        -8.4960   39.9770   24.4260 C.3   216  LYS216      0.0206
     16  CE        -9.3030   41.2250   24.6140 C.3   216  LYS216      0.1093
     17  NZ       -10.6240   41.0040   23.9790 N.3   216  LYS216     -0.1314
     18  N         -6.1030   37.7260   27.7740 N.am  217  LEU217     -0.1980
     19  CA        -5.6150   36.3660   27.5990 C.3   217  LEU217      0.1596
     20  C         -6.5380   35.3690   28.2390 C.2   217  LEU217      0.2287
     21  O         -6.8050   34.3130   27.6240 O.2   217  LEU217     -0.2864
     22  CB        -4.2200   36.1260   28.1050 C.3   217  LEU217      0.0297
     23  CG        -3.1330   36.8150   27.3240 C.3   217  LEU217      0.0022
     24  CD1       -1.9050   36.7360   28.2240 C.3   217  LEU217      0.0001
     25  CD2       -2.8030   36.1430   25.9340 C.3   217  LEU217      0.0001
     26  N         -9.7440   35.9020   28.4980 N.3   219  THR219     -0.1203
     27  CA       -10.9150   35.6100   27.6990 C.3   219  THR219      0.1994
     28  C        -10.6860   34.4950   26.5590 C.2   219  THR219      0.2617
     29  O        -11.6240   33.7900   26.1770 O.2   219  THR219     -0.2717
     30  CB       -11.8050   36.8330   27.2710 C.3   219  THR219      0.1784
     31  OG1      -12.1470   36.7810   25.8490 O.3   219  THR219     -0.2211
     32  CG2      -11.2990   38.1790   27.5590 C.3   219  THR219      0.0376
     33  N         -9.4530   34.3470   26.0660 N.am  220  HIS220     -0.1975
     34  CA        -9.1340   33.3840   25.0340 C.3   220  HIS220      0.1656
     35  C         -9.2860   31.9580   25.4770 C.2   220  HIS220      0.2291
     36  O         -9.4710   31.0510   24.6360 O.2   220  HIS220     -0.2864
     37  CB        -7.7000   33.5810   24.5460 C.3   220  HIS220      0.0771
     38  CG        -7.5520   34.7450   23.5790 C.ar  220  HIS220      0.0820
     39  ND1       -7.6600   36.0680   23.9680 N.ar  220  HIS220     -0.2267
     40  CD2       -7.2780   34.7730   22.2480 C.ar  220  HIS220      0.1154
     41  CE1       -7.4230   36.8630   22.9300 C.ar  220  HIS220      0.1986
     42  NE2       -7.1870   36.0980   21.8710 N.ar  220  HIS220     -0.2212
     43  N        -11.7410   29.3620   24.2100 N.3   223  THR223     -0.1203
     44  CA       -11.7140   28.9610   22.7990 C.3   223  THR223      0.1994
     45  C        -10.3890   28.2670   22.4170 C.2   223  THR223      0.2617
     46  O        -10.2720   27.4470   21.4880 O.2   223  THR223     -0.2717
     47  CB       -11.9220   30.2730   21.9490 C.3   223  THR223      0.1784
     48  OG1      -13.2940   30.6570   22.0350 O.3   223  THR223     -0.2211
     49  CG2      -11.7250   30.0560   20.4290 C.3   223  THR223      0.0376
     50  N         -9.3740   28.7090   23.0560 N.am  224  VAL224     -0.1979
     51  CA        -8.0010   28.3030   22.7580 C.3   224  VAL224      0.1595
     52  C         -7.5020   27.4850   23.9790 C.2   224  VAL224      0.2287
     53  O         -7.4680   28.0010   25.1440 O.2   224  VAL224     -0.2864
     54  CB        -7.0950   29.4830   22.4740 C.3   224  VAL224      0.0276
     55  CG1       -5.7670   28.9690   22.1330 C.3   224  VAL224      0.0022
     56  CG2       -7.6350   30.3440   21.3180 C.3   224  VAL224      0.0022
     57  N         -2.2280   25.1040   23.3030 N.3   228  THR228     -0.1203
     58  CA        -1.9100   25.8750   22.0850 C.3   228  THR228      0.1994
     59  C         -0.9070   27.0080   22.2730 C.2   228  THR228      0.2618
     60  O          0.1050   27.1210   21.5580 O.2   228  THR228     -0.2717
     61  CB        -3.2620   26.3350   21.4540 C.3   228  THR228      0.1784
     62  OG1       -3.9550   25.1690   21.0110 O.3   228  THR228     -0.2211
     63  CG2       -3.0710   27.2380   20.1430 C.3   228  THR228      0.0376
     64  N         -1.1640   27.9000   23.2330 N.am  229  CYS229     -0.1969
     65  CA        -0.2160   28.9960   23.4700 C.3   229  CYS229      0.1712
     66  C          1.1080   28.5770   24.1470 C.2   229  CYS229      0.2296
     67  O          2.1610   29.1620   23.9210 O.2   229  CYS229     -0.2864
     68  CB        -0.9210   30.0880   24.2630 C.3   229  CYS229      0.0983
     69  SG        -2.2680   30.8180   23.2260 S.3   229  CYS229     -0.0798
     70  N         -9.4340   25.1450   20.3130 N.3   320  ILE320     -0.1245
     71  CA        -8.3560   24.9420   19.3720 C.3   320  ILE320      0.1561
     72  C         -7.1460   24.3590   20.0960 C.2   320  ILE320      0.2260
     73  O         -6.6310   24.9700   21.0550 O.2   320  ILE320     -0.2867
     74  CB        -7.9920   26.2740   18.6270 C.3   320  ILE320      0.0252
     75  CG1       -9.2140   26.7940   17.8630 C.3   320  ILE320      0.0019
     76  CG2       -6.6720   26.1270   17.7570 C.3   320  ILE320      0.0019
     77  CD1       -8.9800   28.3240   17.4510 C.3   320  ILE320      0.0001
     78  N          2.8920   31.6220   22.8690 N.3   403  LEU403     -0.1231
     79  CA         2.4250   32.3630   21.7240 C.3   403  LEU403      0.1693
     80  C          1.8590   33.6890   22.2490 C.2   403  LEU403      0.2592
     81  O          1.0860   33.6620   23.1630 O.2   403  LEU403     -0.2718
     82  CB         1.3360   31.5910   20.9960 C.3   403  LEU403      0.0284
     83  CG         1.7580   30.2520   20.3860 C.3   403  LEU403      0.0019
     84  CD1        0.6810   29.7600   19.4170 C.3   403  LEU403      0.0001
     85  CD2        3.1520   30.5560   19.6680 C.3   403  LEU403      0.0001
     86  N          2.2960   34.8290   21.7000 N.am  404  ASN404     -0.1960
     87  CA         1.6740   36.0930   22.0570 C.3   404  ASN404      0.1819
     88  C          0.8470   36.6740   20.8860 C.2   404  ASN404      0.2621
     89  O          0.7920   36.0610   19.8230 O.2   404  ASN404     -0.2715
     90  CB         2.7150   37.0730   22.6160 C.3   404  ASN404      0.1195
     91  CG         2.3100   37.6680   24.0380 C.2   404  ASN404      0.2630
     92  OD1        1.1450   38.0320   24.2950 O.2   404  ASN404     -0.2716
     93  ND2        3.3080   37.7790   24.9450 N.am  404  ASN404     -0.0877
     94  N          0.1700   37.7810   21.1150 N.am  405  CYS405     -0.1968
     95  CA        -0.8260   38.3280   20.2080 C.3   405  CYS405      0.1712
     96  C         -0.3940   38.2780   18.7840 C.2   405  CYS405      0.2296
     97  O         -1.1840   37.8510   17.9740 O.2   405  CYS405     -0.2864
     98  CB        -1.2370   39.7670   20.5650 C.3   405  CYS405      0.0983
     99  SG        -1.2200   40.0790   22.3800 S.3   405  CYS405     -0.0798
    100  N         -0.4420   34.9890   16.3680 N.3   408  CYS408     -0.1221
    101  CA        -1.7020   34.6620   15.6820 C.3   408  CYS408      0.1808
    102  C         -2.3190   35.7990   14.9290 C.2   408  CYS408      0.2601
    103  O         -2.8560   35.5390   13.8720 O.2   408  CYS408     -0.2717
    104  CB        -2.7460   34.1570   16.6700 C.3   408  CYS408      0.0970
    105  SG        -2.1130   32.6790   17.5920 S.3   408  CYS408     -0.0800
    106  N         -2.3110   37.0390   15.4810 N.am  409  HIS409     -0.1975
    107  CA        -3.0340   38.1790   14.8870 C.3   409  HIS409      0.1656
    108  C         -2.0530   39.0190   14.0430 C.2   409  HIS409      0.2291
    109  O         -0.8540   38.6990   14.0520 O.2   409  HIS409     -0.2864
    110  CB        -3.7540   39.0500   15.9690 C.3   409  HIS409      0.0771
    111  CG        -4.8180   38.2920   16.7360 C.ar  409  HIS409      0.0820
    112  ND1       -6.0020   37.8930   16.1680 N.ar  409  HIS409     -0.2267
    113  CD2       -4.8390   37.8190   17.9980 C.ar  409  HIS409      0.1154
    114  CE1       -6.7190   37.2160   17.0460 C.ar  409  HIS409      0.1986
    115  NE2       -6.0500   37.1860   18.1800 N.ar  409  HIS409     -0.2212
    116  N         -2.2940   30.4380   13.0260 N.3   415  LEU415     -0.1245
    117  CA        -3.6220   29.7830   12.9150 C.3   415  LEU415      0.1561
    118  C         -4.1230   29.9870   11.4830 C.2   415  LEU415      0.2260
    119  O         -3.9090   31.0440   10.8810 O.2   415  LEU415     -0.2867
    120  CB        -4.6260   30.3820   13.8600 C.3   415  LEU415      0.0270
    121  CG        -4.3410   30.1600   15.3590 C.3   415  LEU415      0.0019
    122  CD1       -5.5900   30.4460   16.1280 C.3   415  LEU415      0.0001
    123  CD2       -3.8550   28.7380   15.7510 C.3   415  LEU415      0.0001
    124  N         -6.8580   30.9110    9.8180 N.3   417  TRP417     -0.1241
    125  CA        -8.2160   31.4030   10.1450 C.3   417  TRP417      0.1605
    126  C         -9.3770   30.7100    9.3530 C.2   417  TRP417      0.2264
    127  O        -10.3330   30.2110    9.9550 O.2   417  TRP417     -0.2867
    128  CB        -8.2640   32.9060    9.9870 C.3   417  TRP417      0.0550
    129  CG        -7.3100   33.6020   10.9730 C.ar  417  TRP417      0.0003
    130  CD1       -6.2090   34.3570   10.6710 C.ar  417  TRP417      0.0946
    131  CD2       -7.3500   33.5220   12.4080 C.ar  417  TRP417      0.0152
    132  NE1       -5.6160   34.8400   11.8230 N.ar  417  TRP417     -0.2442
    133  CE2       -6.2890   34.3310   12.9080 C.ar  417  TRP417      0.0810
    134  CE3       -8.2210   32.8860   13.3400 C.ar  417  TRP417      0.0012
    135  CZ2       -6.0790   34.5340   14.2970 C.ar  417  TRP417      0.0191
    136  CZ3       -7.9890   33.0730   14.7070 C.ar  417  TRP417      0.0001
    137  CH2       -6.9360   33.9010   15.1600 C.ar  417  TRP417      0.0015
    138  N        -13.1360   30.7160   10.6360 N.3   422  TYR422     -0.1241
    139  CA       -13.2540   32.1530   10.8540 C.3   422  TYR422      0.1605
    140  C        -13.3320   32.8540    9.4990 C.2   422  TYR422      0.2264
    141  O        -12.8300   32.3630    8.4830 O.2   422  TYR422     -0.2867
    142  CB       -12.0410   32.6770   11.6520 C.3   422  TYR422      0.0534
    143  CG       -12.1130   32.2360   13.1320 C.ar  422  TYR422     -0.0201
    144  CD1      -11.4510   31.0950   13.5700 C.ar  422  TYR422     -0.0009
    145  CD2      -12.8820   32.9480   14.0660 C.ar  422  TYR422     -0.0009
    146  CE1      -11.5530   30.6780   14.8560 C.ar  422  TYR422      0.0417
    147  CE2      -12.9790   32.5240   15.3660 C.ar  422  TYR422      0.0417
    148  CZ       -12.3340   31.3930   15.7530 C.ar  422  TYR422      0.1957
    149  OH       -12.4480   30.9570   17.0480 O.3   422  TYR422     -0.2866
    150  N         -9.9240   37.4050   13.5450 N.3   426  PRO426     -0.2102
    151  CA       -10.9980   37.9460   14.3970 C.3   426  PRO426      0.1504
    152  C        -10.7170   39.3240   14.9760 C.2   426  PRO426      0.2575
    153  O        -11.6870   39.9780   15.3550 O.2   426  PRO426     -0.2718
    154  CB       -11.0830   36.9600   15.5690 C.3   426  PRO426      0.0282
    155  CG       -10.2970   35.7920   15.2380 C.3   426  PRO426      0.0208
    156  CD        -9.5160   36.0580   13.9930 C.3   426  PRO426      0.0893
    157  N         -9.4530   39.7230   15.0630 N.am  427  MET427     -0.1980
    158  CA        -9.0940   41.0530   15.5100 C.3   427  MET427      0.1605
    159  C         -9.2900   42.1340   14.4290 C.2   427  MET427      0.2287
    160  O         -9.5710   43.2810   14.7650 O.2   427  MET427     -0.2864
    161  CB        -7.6450   41.0290   15.9340 C.3   427  MET427      0.0413
    162  CG        -7.2210   42.2470   16.6870 C.3   427  MET427      0.0598
    163  SD        -5.3990   42.3350   16.7200 S.3   427  MET427     -0.1393
    164  CE        -5.1540   41.5250   18.0370 C.3   427  MET427      0.0692
    165  N        -14.5240   41.9230   13.2820 N.3   430  LYS430     -0.1245
    166  CA       -15.4700   41.6220   14.3630 C.3   430  LYS430      0.1561
    167  C        -16.8780   41.4550   13.8150 C.2   430  LYS430      0.2260
    168  O        -17.8250   42.0650   14.3260 O.2   430  LYS430     -0.2867
    169  CB       -15.4590   42.7320   15.4530 C.3   430  LYS430      0.0271
    170  CG       -14.6910   44.0740   15.1270 C.3   430  LYS430      0.0035
    171  CD       -15.4510   45.0240   14.1200 C.3   430  LYS430      0.0206
    172  CE       -14.5600   46.1930   13.5660 C.3   430  LYS430      0.1093
    173  NZ       -13.4320   45.8480   12.5980 N.3   430  LYS430     -0.1314
    174  N        -17.2460   35.3960   12.4070 N.3   433  PRO433     -0.2102
    175  CA       -17.0000   34.1200   13.0780 C.3   433  PRO433      0.1504
    176  C        -16.7310   34.2410   14.5510 C.2   433  PRO433      0.2576
    177  O        -15.7950   34.9830   14.8990 O.2   433  PRO433     -0.2718
    178  CB       -15.7270   33.6610   12.3720 C.3   433  PRO433      0.0282
    179  CG       -15.0890   35.1020   11.7000 C.3   433  PRO433      0.0208
    180  CD       -16.0080   36.1730   12.1580 C.3   433  PRO433      0.0893
    181  N        -17.5250   33.5770   15.3990 N.am  434  LYS434     -0.1966
    182  CA       -17.1430   33.4440   16.7940 C.3   434  LYS434      0.1728
    183  C        -17.4150   32.0390   17.2800 C.2   434  LYS434      0.2616
    184  O        -18.4410   31.4370   16.9390 O.2   434  LYS434     -0.2715
    185  CB       -17.8070   34.4970   17.7160 C.3   434  LYS434      0.0311
    186  CG       -19.0090   35.2920   17.0770 C.3   434  LYS434      0.0038
    187  CD       -20.4010   35.0360   17.7820 C.3   434  LYS434      0.0206
    188  CE       -21.2220   36.3640   17.9410 C.3   434  LYS434      0.1093
    189  NZ       -22.6250   36.3800   17.2940 N.3   434  LYS434     -0.1314
    190  N        -16.4640   31.5180   18.0550 N.am  435  HIS435     -0.1959
    191  CA       -16.6560   30.3140   18.8320 C.3   435  HIS435      0.1787
    192  C        -17.9330   30.2930   19.7250 C.2   435  HIS435      0.2620
    193  O        -18.1850   31.2490   20.4790 O.2   435  HIS435     -0.2715
    194  CB       -15.4210   30.0680   19.7020 C.3   435  HIS435      0.0785
    195  CG       -15.4940   28.7870   20.4720 C.ar  435  HIS435      0.0821
    196  ND1      -16.0300   27.6260   19.9460 N.ar  435  HIS435     -0.2267
    197  CD2      -15.1360   28.4920   21.7350 C.ar  435  HIS435      0.1154
    198  CE1      -15.9850   26.6740   20.8460 C.ar  435  HIS435      0.1986
    199  NE2      -15.4410   27.1730   21.9440 N.ar  435  HIS435     -0.2212
    200  N        -18.7470   29.2380   19.5820 N.am  436  LYS436     -0.1977
    201  CA       -19.5300   28.6400   20.7010 C.3   436  LYS436      0.1596
    202  C        -20.7540   27.9300   20.0950 C.2   436  LYS436      0.2287
    203  O        -21.8990   28.0770   20.5750 O.2   436  LYS436     -0.2864
    204  CB       -19.9150   29.6610   21.8190 C.3   436  LYS436      0.0298
    205  CG       -19.4090   29.3350   23.2050 C.3   436  LYS436      0.0038
    206  CD       -18.9810   30.6730   24.0010 C.3   436  LYS436      0.0206
    207  CE       -17.4860   30.6960   24.5620 C.3   436  LYS436      0.1093
    208  NZ       -16.6760   32.0880   24.5540 N.3   436  LYS436     -0.1314
@<TRIPOS>BOND
     1   141   140    2
     2   126   127    2
     3   126   125    1
     4   140   139    1
     5   124   125    1
     6   128   125    1
     7   128   129    1
     8   138   139    1
     9   130   129   ar
    10   130   132   ar
    11   139   142    1
    12   119   118    2
    13   129   131   ar
    14   118   117    1
    15   142   143    1
    16   179   180    1
    17   179   178    1
    18   132   133   ar
    19   180   174    1
    20   178   175    1
    21   174   175    1
    22   131   133   ar
    23   131   134   ar
    24   173   172    1
    25   133   135   ar
    26   117   116    1
    27   117   120    1
    28   175   176    1
    29   143   144   ar
    30   143   145   ar
    31   165   166    1
    32   134   136   ar
    33   150   156    1
    34   150   151    1
    35   172   171    1
    36   144   146   ar
    37   167   168    2
    38   167   166    1
    39   120   121    1
    40   103   102    2
    41   156   155    1
    42   108   109    2
    43   108   107    1
    44   145   147   ar
    45   171   170    1
    46   135   137   ar
    47   166   169    1
    48   151   152    1
    49   151   154    1
    50   159   160    2
    51   159   158    1
    52   176   177    2
    53   176   181   am
    54   136   137   ar
    55   146   148   ar
    56   107   106    1
    57   107   110    1
    58   102   106   am
    59   102   101    1
    60   152   157   am
    61   152   153    2
    62   157   158    1
    63   170   169    1
    64   155   154    1
    65   121   123    1
    66   121   122    1
    67   147   148   ar
    68   181   182    1
    69   158   161    1
    70   101   100    1
    71   101   104    1
    72   148   149    1
    73   161   162    1
    74   110   111    1
    75   112   111   ar
    76   112   114   ar
    77   104   105    1
    78   162   163    1
    79   163   164    1
    80   111   113   ar
    81   182   183    1
    82   182   185    1
    83   184   183    2
    84   114   115   ar
    85   186   185    1
    86   186   187    1
    87   183   190   am
    88   189   188    1
    89    77    75    1
    90    76    74    1
    91   187   188    1
    92    75    74    1
    93    97    96    2
    94   113   115   ar
    95   190   191    1
    96    74    71    1
    97    96    95    1
    98   191   194    1
    99   191   192    1
   100    71    72    1
   101    71    70    1
   102    84    83    1
   103   200   192   am
   104   200   201    1
   105    85    83    1
   106   194   195    1
   107   192   193    2
   108    89    88    2
   109   196   195   ar
   110   196   198   ar
   111   202   203    2
   112   202   201    1
   113    72    73    2
   114    63    61    1
   115    95    98    1
   116    95    94    1
   117    83    82    1
   118    49    47    1
   119   195   197   ar
   120    98    99    1
   121   201   204    1
   122   198   199   ar
   123    88    94   am
   124    88    87    1
   125    82    79    1
   126    62    61    1
   127    56    54    1
   128    61    58    1
   129    46    45    2
   130    60    59    2
   131    86    87    1
   132    86    80   am
   133    79    80    1
   134    79    78    1
   135   197   199   ar
   136   204   205    1
   137    42    40   ar
   138    42    41   ar
   139    47    48    1
   140    47    44    1
   141    87    90    1
   142    58    59    1
   143    58    57    1
   144    55    54    1
   145    40    38   ar
   146    80    81    2
   147    59    64   am
   148    45    44    1
   149    45    50   am
   150    54    51    1
   151    90    91    1
   152    51    50    1
   153    51    52    1
   154    44    43    1
   155    41    39   ar
   156   205   206    1
   157    69    68    1
   158    64    65    1
   159    65    66    1
   160    65    68    1
   161    38    39   ar
   162    38    37    1
   163    67    66    2
   164    17    16    1
   165    52    53    2
   166   206   207    1
   167    91    92    2
   168    91    93   am
   169    15    16    1
   170    15    14    1
   171    37    34    1
   172   208   207    1
   173    36    35    2
   174    14    13    1
   175    34    35    1
   176    34    33    1
   177    31    30    1
   178    25    23    1
   179    33    28   am
   180    29    28    2
   181    12    11    2
   182    13    10    1
   183    28    27    1
   184    11    10    1
   185    11    18   am
   186    30    32    1
   187    30    27    1
   188    23    22    1
   189    23    24    1
   190    10     9    1
   191    19    18    1
   192    19    22    1
   193    19    20    1
   194    21    20    2
   195    27    26    1
   196     8     6   am
   197     7     6    2
   198     6     5    1
   199     5     2    1
   200     4     3    2
   201     3     2    1
   202     2     1    1
