@<TRIPOS>MOLECULE
tmp/1sp3A03.pdb
 204 197 0 0 0
SMALL
GASTEIGER

@<TRIPOS>ATOM
      1  N         -5.1140   -0.7290   29.9090 N.3    37  SER37      -0.1202
      2  CA        -4.5800   -0.7550   28.5330 C.3    37  SER37       0.2020
      3  C         -3.0560   -1.0590   28.4690 C.2    37  SER37       0.2618
      4  O         -2.5490   -1.5300   27.4290 O.2    37  SER37      -0.2717
      5  CB        -4.9240    0.5010   27.7580 C.3    37  SER37       0.2103
      6  OG        -4.1460    1.5050   28.2090 O.3    37  SER37      -0.2182
      7  N         -2.3180   -0.8000   29.5440 N.am   38  HIS38      -0.1975
      8  CA        -0.8590   -1.1170   29.4820 C.3    38  HIS38       0.1656
      9  C         -0.6210   -2.5950   29.2910 C.2    38  HIS38       0.2291
     10  O          0.3950   -2.9840   28.8460 O.2    38  HIS38      -0.2864
     11  CB        -0.1200   -0.6120   30.7110 C.3    38  HIS38       0.0771
     12  CG         0.3980    0.7780   30.5120 C.ar   38  HIS38       0.0820
     13  ND1       -0.1900    1.8780   31.0950 N.ar   38  HIS38      -0.2267
     14  CD2        1.3560    1.2580   29.6780 C.ar   38  HIS38       0.1154
     15  CE1        0.4320    2.9720   30.6750 C.ar   38  HIS38       0.1986
     16  NE2        1.3690    2.6250   29.8100 N.ar   38  HIS38      -0.2212
     17  N         -3.4970   -3.5250   25.7150 N.3    41  TRP41      -0.1241
     18  CA        -3.3540   -2.7750   24.4540 C.3    41  TRP41       0.1605
     19  C         -4.7150   -2.5480   23.8060 C.2    41  TRP41       0.2264
     20  O         -4.8600   -2.4070   22.5580 O.2    41  TRP41      -0.2867
     21  CB        -2.3730   -3.4710   23.4740 C.3    41  TRP41       0.0550
     22  CG        -0.8600   -3.1140   23.8180 C.ar   41  TRP41       0.0003
     23  CD1       -0.3770   -2.4970   24.9770 C.ar   41  TRP41       0.0946
     24  CD2        0.2840   -3.4250   23.0320 C.ar   41  TRP41       0.0152
     25  NE1        0.9900   -2.3570   24.8990 N.ar   41  TRP41      -0.2442
     26  CE2        1.4280   -2.9110   23.7250 C.ar   41  TRP41       0.0810
     27  CE3        0.4740   -4.0720   21.7700 C.ar   41  TRP41       0.0012
     28  CZ2        2.7120   -3.0330   23.2320 C.ar   41  TRP41       0.0191
     29  CZ3        1.7730   -4.1800   21.2930 C.ar   41  TRP41       0.0001
     30  CH2        2.8830   -3.6550   22.0160 C.ar   41  TRP41       0.0015
     31  N         -8.4390   -0.2230   24.0930 N.3    43  LEU43      -0.1245
     32  CA        -9.2390    0.8670   24.6080 C.3    43  LEU43       0.1561
     33  C        -10.5910    0.8990   23.8750 C.2    43  LEU43       0.2260
     34  O        -10.6480    0.6870   22.6740 O.2    43  LEU43      -0.2867
     35  CB        -8.5800    2.2100   24.3090 C.3    43  LEU43       0.0270
     36  CG        -7.4560    2.6530   25.2640 C.3    43  LEU43       0.0019
     37  CD1       -6.6680    3.8050   24.6540 C.3    43  LEU43       0.0001
     38  CD2       -7.9410    2.9620   26.7090 C.3    43  LEU43       0.0001
     39  N         -7.2720    1.0340   20.8770 N.3    55  GLY55      -0.1210
     40  CA        -6.0480    0.7170   21.5970 C.3    55  GLY55       0.1956
     41  C         -5.0360    0.2700   20.5630 C.2    55  GLY55       0.2611
     42  O         -5.3820    0.0550   19.3850 O.2    55  GLY55      -0.2717
     43  N         -3.7850    0.1160   20.9840 N.am   56  LYS56      -0.1979
     44  CA        -2.7000   -0.2210   20.0850 C.3    56  LYS56       0.1596
     45  C         -2.9370   -1.5740   19.3400 C.2    56  LYS56       0.2287
     46  O         -2.5070   -1.7120   18.1880 O.2    56  LYS56      -0.2864
     47  CB        -1.3560   -0.3160   20.8550 C.3    56  LYS56       0.0298
     48  CG        -0.2090   -0.6990   19.9780 C.3    56  LYS56       0.0038
     49  CD         1.0860   -0.3170   20.6120 C.3    56  LYS56       0.0206
     50  CE         2.1530   -0.7780   19.6560 C.3    56  LYS56       0.1093
     51  NZ         3.4220   -0.3660   20.1910 N.3    56  LYS56      -0.1314
     52  N          7.8990   -3.1100   23.6110 N.3    77  CYS77      -0.1221
     53  CA         7.2200   -2.0240   24.3540 C.3    77  CYS77       0.1808
     54  C          5.8300   -2.4310   24.8860 C.2    77  CYS77       0.2601
     55  O          4.9490   -1.5920   25.0830 O.2    77  CYS77      -0.2717
     56  CB         7.1680   -0.7240   23.5220 C.3    77  CYS77       0.0970
     57  SG         8.8790   -0.1530   23.3450 S.3    77  CYS77      -0.0800
     58  N          5.6610   -3.7160   25.1540 N.am   78  HIS78      -0.1961
     59  CA         4.5300   -4.2130   25.9530 C.3    78  HIS78       0.1787
     60  C          5.0010   -4.5170   27.3890 C.2    78  HIS78       0.2620
     61  O          6.0420   -5.1210   27.5830 O.2    78  HIS78      -0.2715
     62  CB         3.9350   -5.5060   25.3230 C.3    78  HIS78       0.0785
     63  CG         2.7600   -6.0570   26.0450 C.ar   78  HIS78       0.0821
     64  ND1        2.7590   -7.3450   26.5490 N.ar   78  HIS78      -0.2267
     65  CD2        1.5420   -5.5150   26.3600 C.ar   78  HIS78       0.1154
     66  CE1        1.5810   -7.5890   27.1190 C.ar   78  HIS78       0.1986
     67  NE2        0.8090   -6.5100   26.9780 N.ar   78  HIS78      -0.2212
     68  N          4.2110   -4.1290   28.3910 N.am   79  ALA79      -0.1977
     69  CA         4.5410   -4.4110   29.7930 C.3    79  ALA79       0.1597
     70  C          4.2980   -5.9080   30.1310 C.2    79  ALA79       0.2287
     71  O          3.6550   -6.2340   31.1520 O.2    79  ALA79      -0.2864
     72  CB         3.7170   -3.4780   30.7390 C.3    79  ALA79       0.0319
     73  N          9.8900   -3.2140   34.1100 N.3   100  ILE100     -0.1231
     74  CA        10.0610   -2.1250   33.1880 C.3   100  ILE100      0.1692
     75  C          9.6470   -0.7590   33.8440 C.2   100  ILE100      0.2592
     76  O         10.3190    0.2640   33.6500 O.2   100  ILE100     -0.2718
     77  CB         9.3900   -2.4190   31.8350 C.3   100  ILE100      0.0266
     78  CG1        9.6540   -1.3150   30.7760 C.3   100  ILE100      0.0019
     79  CG2        7.9120   -2.6260   32.0050 C.3   100  ILE100      0.0020
     80  CD1       10.9720   -1.4790   30.1820 C.3   100  ILE100      0.0001
     81  N          8.6170   -0.7310   34.6740 N.am  101  CYS101     -0.1970
     82  CA         8.2580    0.5500   35.2970 C.3   101  CYS101      0.1712
     83  C          8.9460    0.8070   36.6140 C.2   101  CYS101      0.2296
     84  O          8.9440    1.9180   37.0920 O.2   101  CYS101     -0.2864
     85  CB         6.7540    0.6580   35.5200 C.3   101  CYS101      0.0983
     86  SG         5.8290    0.6560   33.9320 S.3   101  CYS101     -0.0798
     87  N         14.5390   -4.2730   27.6030 N.3   110  LYS110     -0.1245
     88  CA        13.7800   -5.3390   26.8670 C.3   110  LYS110      0.1561
     89  C         14.3850   -5.3920   25.4720 C.2   110  LYS110      0.2260
     90  O         14.6030   -4.3820   24.8170 O.2   110  LYS110     -0.2867
     91  CB        12.2770   -4.9880   26.7830 C.3   110  LYS110      0.0271
     92  CG        11.5420   -5.1010   28.1380 C.3   110  LYS110      0.0035
     93  CD        10.1280   -4.5070   28.1260 C.3   110  LYS110      0.0206
     94  CE         9.0640   -5.4690   27.6500 C.3   110  LYS110      0.1093
     95  NZ         8.4860   -6.2820   28.6880 N.3   110  LYS110     -0.1314
     96  N          8.5350    4.3400   39.9830 N.3   134  PRO134     -0.2116
     97  CA         8.9270    4.7520   38.6110 C.3   134  PRO134      0.1372
     98  C          9.3850    6.2260   38.6070 C.2   134  PRO134      0.2244
     99  O          8.7640    7.0900   39.3230 O.2   134  PRO134     -0.2868
    100  CB         7.6010    4.6880   37.7990 C.3   134  PRO134      0.0268
    101  CG         6.6820    3.5380   38.6560 C.3   134  PRO134      0.0207
    102  CD         7.1300    3.8900   40.0930 C.3   134  PRO134      0.0892
    103  N         11.6300    5.4120   33.4910 N.3   138  ASN138     -0.1225
    104  CA        10.9600    4.1340   33.3710 C.3   138  ASN138      0.1785
    105  C          9.8450    4.2420   32.3080 C.2   138  ASN138      0.2597
    106  O          9.7640    3.4020   31.4250 O.2   138  ASN138     -0.2718
    107  CB        10.4030    3.6630   34.7020 C.3   138  ASN138      0.1169
    108  CG        11.4760    3.4450   35.7450 C.2   138  ASN138      0.2627
    109  OD1       11.6770    4.2940   36.6540 O.2   138  ASN138     -0.2716
    110  ND2       12.1480    2.2820   35.6670 N.am  138  ASN138     -0.0877
    111  N          8.9860    5.2640   32.4010 N.am  139  CYS139     -0.1970
    112  CA         7.9050    5.4380   31.4310 C.3   139  CYS139      0.1712
    113  C          8.5320    5.5480   30.0720 C.2   139  CYS139      0.2296
    114  O          8.0420    4.9640   29.1710 O.2   139  CYS139     -0.2864
    115  CB         7.0460    6.6920   31.7260 C.3   139  CYS139      0.0983
    116  SG         6.5420    6.6420   33.4530 S.3   139  CYS139     -0.0798
    117  N          9.4870    3.0950   26.9550 N.3   142  CYS142     -0.1221
    118  CA         8.5580    2.8680   25.8380 C.3   142  CYS142      0.1808
    119  C          8.0870    4.1520   25.2640 C.2   142  CYS142      0.2601
    120  O          7.9020    4.1830   24.1070 O.2   142  CYS142     -0.2717
    121  CB         7.3360    2.1050   26.2700 C.3   142  CYS142      0.0970
    122  SG         7.7320    0.5030   27.0380 S.3   142  CYS142     -0.0800
    123  N          7.8610    5.1890   26.0870 N.am  143  HIS143     -0.1975
    124  CA         7.3540    6.5030   25.6080 C.3   143  HIS143      0.1656
    125  C          8.2760    7.5420   24.8930 C.2   143  HIS143      0.2291
    126  O          7.7340    8.4790   24.2960 O.2   143  HIS143     -0.2864
    127  CB         6.5350    7.2010   26.7000 C.3   143  HIS143      0.0771
    128  CG         5.2330    6.5190   26.9810 C.ar  143  HIS143      0.0820
    129  ND1        4.1180    6.7060   26.2010 N.ar  143  HIS143     -0.2267
    130  CD2        4.8970    5.5820   27.9020 C.ar  143  HIS143      0.1154
    131  CE1        3.1470    5.9250   26.6240 C.ar  143  HIS143      0.1986
    132  NE2        3.5910    5.2400   27.6610 N.ar  143  HIS143     -0.2212
    133  N          6.3300   11.5630   35.7600 N.3   175  CYS175     -0.1221
    134  CA         5.1580   11.5290   34.9320 C.3   175  CYS175      0.1808
    135  C          3.8900   11.3940   35.7390 C.2   175  CYS175      0.2601
    136  O          2.9050   12.0790   35.4200 O.2   175  CYS175     -0.2717
    137  CB         5.2150   10.3550   33.9620 C.3   175  CYS175      0.0970
    138  SG         6.7240   10.1930   33.0160 S.3   175  CYS175     -0.0800
    139  N          3.9290   10.5150   36.7770 N.am  176  GLN176     -0.1979
    140  CA         2.7760   10.3020   37.6490 C.3   176  GLN176      0.1601
    141  C          2.4650   11.4860   38.5470 C.2   176  GLN176      0.2287
    142  O          1.4320   11.4630   39.1620 O.2   176  GLN176     -0.2864
    143  CB         2.8800    9.0320   38.5250 C.3   176  GLN176      0.0394
    144  CG         4.0130    9.1290   39.5880 C.3   176  GLN176      0.0908
    145  CD         5.3760    8.6070   39.1230 C.2   176  GLN176      0.2608
    146  OE1        5.7870    8.7780   37.9490 O.2   176  GLN176     -0.2717
    147  NE2        6.0670    7.9300   40.0230 N.am  176  GLN176     -0.0878
    148  N          0.0610   12.2270   35.9420 N.3   179  HIS179     -0.1241
    149  CA        -0.6180   11.0170   35.5540 C.3   179  HIS179      0.1621
    150  C         -0.8570   10.2150   36.8210 C.2   179  HIS179      0.2264
    151  O         -0.2240    9.1630   37.0380 O.2   179  HIS179     -0.2867
    152  CB         0.2860   10.2710   34.5590 C.3   179  HIS179      0.0745
    153  CG         0.2860   10.9080   33.2140 C.ar  179  HIS179      0.0817
    154  ND1       -0.7810   10.7900   32.3230 N.ar  179  HIS179     -0.2268
    155  CD2        1.1800   11.7250   32.6260 C.ar  179  HIS179      0.1154
    156  CE1       -0.5440   11.5340   31.2560 C.ar  179  HIS179      0.1986
    157  NE2        0.6410   12.1050   31.4060 N.ar  179  HIS179     -0.2212
    158  N         -1.8640    7.7470   39.5160 N.3   181  THR181     -0.1218
    159  CA        -2.1120    6.3480   39.3420 C.3   181  THR181      0.1862
    160  C         -2.7230    5.7650   40.6100 C.2   181  THR181      0.2287
    161  O         -2.1870    5.9450   41.6960 O.2   181  THR181     -0.2866
    162  CB        -0.7910    5.7040   39.0640 C.3   181  THR181      0.1770
    163  OG1       -0.2800    6.2890   37.8620 O.3   181  THR181     -0.2211
    164  CG2       -0.9230    4.1960   38.8210 C.3   181  THR181      0.0375
    165  N         -4.0620    1.8730   37.6000 N.3   185  GLN185     -0.1231
    166  CA        -4.6920    2.6850   36.5010 C.3   185  GLN185      0.1698
    167  C         -4.0390    4.0770   36.4240 C.2   185  GLN185      0.2592
    168  O         -4.2080    4.9320   37.2780 O.2   185  GLN185     -0.2718
    169  CB        -6.2090    2.7600   36.5610 C.3   185  GLN185      0.0381
    170  CG        -6.7900    3.4480   35.2260 C.3   185  GLN185      0.0905
    171  CD        -6.4090    2.8050   33.8440 C.2   185  GLN185      0.2608
    172  OE1       -7.0840    1.8510   33.4130 O.2   185  GLN185     -0.2717
    173  NE2       -5.3530    3.3590   33.1260 N.am  185  GLN185     -0.0878
    174  N         -3.2240    4.2420   35.4200 N.am  186  ILE186     -0.1966
    175  CA        -2.5080    5.4580   35.1740 C.3   186  ILE186      0.1727
    176  C         -3.4510    6.3740   34.4530 C.2   186  ILE186      0.2617
    177  O         -3.9470    6.0620   33.3710 O.2   186  ILE186     -0.2715
    178  CB        -1.2850    5.1290   34.3260 C.3   186  ILE186      0.0290
    179  CG1       -0.3150    4.2340   35.0860 C.3   186  ILE186      0.0022
    180  CG2       -0.5070    6.4110   33.8740 C.3   186  ILE186      0.0023
    181  CD1        0.7540    3.6850   34.2080 C.3   186  ILE186      0.0001
    182  N         -3.7170    7.5280   35.0510 N.am  187  SER187     -0.1936
    183  CA        -4.7230    8.3730   34.5010 C.3   187  SER187      0.2055
    184  C         -4.1890    9.1630   33.2930 C.2   187  SER187      0.2644
    185  O         -3.0310    9.0540   32.9180 O.2   187  SER187     -0.2714
    186  CB        -5.3300    9.2390   35.6150 C.3   187  SER187      0.2130
    187  OG        -4.3980   10.2410   35.8980 O.3   187  SER187     -0.2179
    188  N         -5.0550    9.8500   32.5970 N.am  188  GLY188     -0.1939
    189  CA        -4.7010   10.4470   31.2980 C.3   188  GLY188      0.2014
    190  C         -5.4310    9.9520   30.0350 C.2   188  GLY188      0.2639
    191  O         -5.3440    8.7640   29.6210 O.2   188  GLY188     -0.2714
    192  N         -6.1120   10.8680   29.3790 N.am  189  ASN189     -0.1958
    193  CA        -6.8750   10.5140   28.1580 C.3   189  ASN189      0.1819
    194  C         -5.9740   10.5000   26.9390 C.2   189  ASN189      0.2621
    195  O         -5.3200   11.5540   26.6290 O.2   189  ASN189     -0.2715
    196  CB        -7.9450   11.5890   27.8460 C.3   189  ASN189      0.1195
    197  CG        -9.0970   11.6420   28.8900 C.2   189  ASN189      0.2630
    198  OD1       -9.2190   10.7630   29.7410 O.2   189  ASN189     -0.2716
    199  ND2       -9.9450   12.6930   28.8060 N.am  189  ASN189     -0.0877
    200  N         -5.9560    9.3690   26.2080 N.am  190  ALA190     -0.1977
    201  CA        -5.4160    9.3890   24.8390 C.3   190  ALA190      0.1597
    202  C         -6.3980   10.1930   23.9790 C.2   190  ALA190      0.2287
    203  O         -7.5880   10.2720   24.3090 O.2   190  ALA190     -0.2864
    204  CB        -5.3540    7.9750   24.2980 C.3   190  ALA190      0.0319
@<TRIPOS>BOND
     1    46    45    2
     2    45    44    1
     3    42    41    2
     4    50    51    1
     5    50    49    1
     6    48    49    1
     7    48    47    1
     8    44    47    1
     9    44    43    1
    10    41    43   am
    11    41    40    1
    12    39    40    1
    13    29    27   ar
    14    29    30   ar
    15    27    24   ar
    16    30    28   ar
    17    20    19    2
    18    34    33    2
    19    24    26   ar
    20    24    22   ar
    21    28    26   ar
    22    57    56    1
    23    21    22    1
    24    21    18    1
    25    56    53    1
    26    52    53    1
    27    26    25   ar
    28    19    18    1
    29    22    23   ar
    30    33    32    1
    31   202   203    2
    32   202   201    1
    33    31    32    1
    34   120   119    2
    35   126   125    2
    36   204   201    1
    37    35    32    1
    38    35    36    1
    39    53    54    1
    40    18    17    1
    41    37    36    1
    42    90    89    2
    43   201   200    1
    44    54    55    2
    45    54    58   am
    46   125   124    1
    47    25    23   ar
    48    58    59    1
    49   119   118    1
    50   119   123   am
    51    36    38    1
    52    62    59    1
    53    62    63    1
    54    89    88    1
    55   124   123    1
    56   124   127    1
    57   118   121    1
    58   118   117    1
    59    59    60    1
    60    63    65   ar
    61    63    64   ar
    62   129   131   ar
    63   129   128   ar
    64   200   194   am
    65   121   122    1
    66    65    67   ar
    67    64    66   ar
    68   131   132   ar
    69   195   194    2
    70   127   128    1
    71    91    88    1
    72    91    92    1
    73    88    87    1
    74   194   193    1
    75    67    66   ar
    76   128   130   ar
    77    60    61    2
    78    60    68   am
    79     4     3    2
    80    94    93    1
    81    94    95    1
    82   132   130   ar
    83     5     6    1
    84     5     2    1
    85   196   193    1
    86   196   197    1
    87    93    92    1
    88   193   192    1
    89    68    69    1
    90     3     2    1
    91     3     7   am
    92     2     1    1
    93   199   197   am
    94    10     9    2
    95   197   198    2
    96   114   113    2
    97     9     8    1
    98   192   190   am
    99     8     7    1
   100     8    11    1
   101   191   190    2
   102    14    16   ar
   103    14    12   ar
   104    69    70    1
   105    69    72    1
   106    16    15   ar
   107   190   189    1
   108   113   112    1
   109    70    71    2
   110    80    78    1
   111    12    11    1
   112    12    13   ar
   113    15    13   ar
   114    78    77    1
   115   156   157   ar
   116   156   154   ar
   117   189   188    1
   118   157   155   ar
   119   106   105    2
   120   112   115    1
   121   112   111    1
   122   115   116    1
   123    77    79    1
   124    77    74    1
   125   105   111   am
   126   105   104    1
   127   154   153   ar
   128   188   184   am
   129   155   153   ar
   130   185   184    2
   131   138   137    1
   132   173   171   am
   133    74    75    1
   134    74    73    1
   135   153   152    1
   136   184   183    1
   137   177   176    2
   138   104   103    1
   139   104   107    1
   140   172   171    2
   141    76    75    2
   142   171   170    1
   143    75    81   am
   144   180   178    1
   145    86    85    1
   146   137   134    1
   147   181   179    1
   148   178   179    1
   149   178   175    1
   150   176   182   am
   151   176   175    1
   152   183   182    1
   153   183   186    1
   154   152   149    1
   155    81    82    1
   156   107   108    1
   157   134   135    1
   158   134   133    1
   159   175   174    1
   160   170   169    1
   161    82    85    1
   162    82    83    1
   163   136   135    2
   164   174   167   am
   165   149   148    1
   166   149   150    1
   167   186   187    1
   168   110   108   am
   169   135   139   am
   170   108   109    2
   171   167   166    1
   172   167   168    2
   173   166   169    1
   174   166   165    1
   175    83    84    2
   176   139   140    1
   177   150   151    2
   178   140   143    1
   179   140   141    1
   180   100    97    1
   181   100   101    1
   182   163   162    1
   183   146   145    2
   184   143   144    1
   185   141   142    2
   186    98    97    1
   187    98    99    2
   188    97    96    1
   189   101   102    1
   190   164   162    1
   191   162   159    1
   192   145   144    1
   193   145   147   am
   194   159   158    1
   195   159   160    1
   196    96   102    1
   197   160   161    2
