@<TRIPOS>MOLECULE
tmp/1sp4B00.pdb
 158 156 0 0 0
SMALL
GASTEIGER

@<TRIPOS>ATOM
      1  N         22.6770   22.9730   58.8680 N.3    24  ASN24      -0.1225
      2  CA        22.7730   23.5640   60.1920 C.3    24  ASN24       0.1785
      3  C         22.0480   22.7100   61.2340 C.2    24  ASN24       0.2598
      4  O         21.7200   23.1930   62.3080 O.2    24  ASN24      -0.2718
      5  CB        22.2000   24.9740   60.1810 C.3    24  ASN24       0.1169
      6  CG        22.9740   25.8940   59.2910 C.2    24  ASN24       0.2627
      7  OD1       22.4400   26.3970   58.2880 O.2    24  ASN24      -0.2716
      8  ND2       24.2290   26.1490   59.6470 N.am   24  ASN24      -0.0877
      9  N         21.8360   21.4320   60.9220 N.am   25  GLY25      -0.1942
     10  CA        21.1930   20.5350   61.8540 C.3    25  GLY25       0.2017
     11  C         19.6970   20.4200   61.6640 C.2    25  GLY25       0.2678
     12  O         19.0850   21.2920   61.0690 O.2    25  GLY25      -0.2710
     13  N         19.1210   19.3520   62.2170 N.am   26  GLY26      -0.1716
     14  CA        17.6940   19.1420   62.0980 C.2    26  GLY26       0.1480
     15  C         17.0810   18.1660   63.0840 C.2    26  GLY26       0.2820
     16  O         17.7150   17.7860   64.0720 O.2    26  GLY26      -0.2669
     17  N         15.8910   17.6660   62.7420 N.am   27  PHE27      -0.1926
     18  CA        15.1200   16.7730   63.6090 C.3    27  PHE27       0.1759
     19  C         14.9120   15.3950   63.0140 C.2    27  PHE27       0.2461
     20  O         14.1670   15.2070   62.0450 O.2    27  PHE27      -0.2730
     21  CB        13.7510   17.3740   63.9010 C.3    27  PHE27       0.0574
     22  CG        13.7800   18.8680   64.0780 C.ar   27  PHE27      -0.0200
     23  CD1       14.4960   19.4510   65.1270 C.ar   27  PHE27      -0.0042
     24  CD2       13.1100   19.6890   63.1780 C.ar   27  PHE27      -0.0042
     25  CE1       14.5290   20.8580   65.2600 C.ar   27  PHE27      -0.0003
     26  CE2       13.1430   21.0690   63.3060 C.ar   27  PHE27      -0.0003
     27  CZ        13.8450   21.6710   64.3420 C.ar   27  PHE27      -0.0000
     28  N         15.4330   14.3740   63.7070 N.am   28  PRO28      -0.2727
     29  CA        15.3500   12.9720   63.3140 C.3    28  PRO28       0.1402
     30  C         13.9070   12.5500   63.0320 C.2    28  PRO28       0.2269
     31  O         13.6510   11.9690   61.9820 O.2    28  PRO28      -0.2865
     32  CB        15.9410   12.2380   64.5210 C.3    28  PRO28       0.0296
     33  CG        17.0230   13.2520   65.0330 C.3    28  PRO28       0.0237
     34  CD        16.4580   14.6080   64.7580 C.3    28  PRO28       0.0939
     35  N         37.3390   13.4360   59.2950 N.3    62  HIS62      -0.1226
     36  CA        36.5600   13.8480   60.4670 C.3    62  HIS62       0.1752
     37  C         37.3500   13.5960   61.7700 C.2    62  HIS62       0.2596
     38  O         37.4180   12.4690   62.2620 O.2    62  HIS62      -0.2718
     39  CB        35.2250   13.0930   60.5090 C.3    62  HIS62       0.0759
     40  CG        34.2830   13.4320   59.3820 C.ar   62  HIS62       0.0818
     41  ND1       33.3390   14.4320   59.4730 N.ar   62  HIS62      -0.2268
     42  CD2       34.1030   12.8710   58.1560 C.ar   62  HIS62       0.1154
     43  CE1       32.6180   14.4820   58.3690 C.ar   62  HIS62       0.1986
     44  NE2       33.0680   13.5440   57.5490 N.ar   62  HIS62      -0.2212
     45  N         38.0280   14.6380   62.2470 N.am   63  HIS63      -0.1975
     46  CA        38.7800   14.5780   63.5100 C.3    63  HIS63       0.1656
     47  C         39.9040   13.5310   63.5380 C.2    63  HIS63       0.2291
     48  O         40.1920   12.9540   64.5750 O.2    63  HIS63      -0.2864
     49  CB        37.7980   14.3380   64.6790 C.3    63  HIS63       0.0771
     50  CG        36.5820   15.2010   64.6270 C.ar   63  HIS63       0.0820
     51  ND1       36.6420   16.5690   64.8200 N.ar   63  HIS63      -0.2267
     52  CD2       35.3040   14.9080   64.3220 C.ar   63  HIS63       0.1154
     53  CE1       35.4400   17.0780   64.6370 C.ar   63  HIS63       0.1986
     54  NE2       34.5980   16.1030   64.3330 N.ar   63  HIS63      -0.2212
     55  N         37.6880   18.0970   57.0710 N.3    71  CYS71      -0.1235
     56  CA        36.3380   18.6350   57.0430 C.3    71  CYS71       0.1677
     57  C         36.3970   20.0560   57.6110 C.2    71  CYS71       0.2270
     58  O         37.2130   20.3270   58.4810 O.2    71  CYS71      -0.2867
     59  CB        35.4300   17.7880   57.9270 C.3    71  CYS71       0.0956
     60  SG        35.2740   16.0480   57.4300 S.3    71  CYS71      -0.0801
     61  N         33.6680   21.7960   59.2230 N.3    73  GLY73      -0.1210
     62  CA        32.4500   22.0810   59.9810 C.3    73  GLY73       0.1956
     63  C         31.2850   22.7880   59.2880 C.2    73  GLY73       0.2611
     64  O         31.1750   24.0090   59.3430 O.2    73  GLY73      -0.2717
     65  N         30.3610   21.9970   58.7450 N.am   74  GLU74      -0.1979
     66  CA        29.1710   22.4850   58.0280 C.3    74  GLU74       0.1602
     67  C         29.3020   23.6750   57.0900 C.2    74  GLU74       0.2287
     68  O         29.8500   24.7310   57.4230 O.2    74  GLU74      -0.2864
     69  CB        27.9360   22.6430   58.9250 C.3    74  GLU74       0.0415
     70  CG        28.1700   23.2530   60.2790 C.3    74  GLU74       0.1163
     71  CD        28.2590   22.1920   61.3730 C.2    74  GLU74       0.3649
     72  OE1       29.3660   22.0030   61.9210 O.co2  74  GLU74      -0.2457
     73  OE2       27.2230   21.5600   61.6680 O.co2  74  GLU74      -0.2457
     74  N         20.1370    9.7840   68.9560 N.3   125  ALA125     -0.1231
     75  CA        20.9330   10.9850   69.0900 C.3   125  ALA125      0.1694
     76  C         21.6110   11.0200   70.4610 C.2   125  ALA125      0.2592
     77  O         21.1360   10.3850   71.4280 O.2   125  ALA125     -0.2718
     78  CB        20.0920   12.2060   68.8940 C.3   125  ALA125      0.0304
     79  N         22.7450   11.7100   70.5460 N.am  126  PHE126     -0.1976
     80  CA        23.4670   11.8160   71.8050 C.3   126  PHE126      0.1639
     81  C         24.3050   13.0810   71.8300 C.2   126  PHE126      0.2290
     82  O         24.5630   13.6930   70.7770 O.2   126  PHE126     -0.2864
     83  CB        24.3020   10.5450   72.0950 C.3   126  PHE126      0.0560
     84  CG        25.5970   10.4430   71.2970 C.ar  126  PHE126     -0.0200
     85  CD1       26.8470   10.5740   71.9350 C.ar  126  PHE126     -0.0042
     86  CD2       25.5880   10.1350   69.9290 C.ar  126  PHE126     -0.0042
     87  CE1       28.0680   10.3890   71.2340 C.ar  126  PHE126     -0.0003
     88  CE2       26.8060    9.9490   69.1930 C.ar  126  PHE126     -0.0003
     89  CZ        28.0320   10.0760   69.8450 C.ar  126  PHE126     -0.0000
     90  N         27.6060   14.9380   72.1150 N.3   128  VAL128     -0.1245
     91  CA        29.0000   14.6450   71.8280 C.3   128  VAL128      0.1561
     92  C         29.8550   15.5590   72.6660 C.2   128  VAL128      0.2260
     93  O         29.6520   16.7910   72.6720 O.2   128  VAL128     -0.2867
     94  CB        29.3480   14.9170   70.3590 C.3   128  VAL128      0.0252
     95  CG1       30.8120   14.6390   70.0950 C.3   128  VAL128      0.0019
     96  CG2       28.4780   14.0560   69.4450 C.3   128  VAL128      0.0019
     97  N         35.6840   12.4630   70.2230 N.3   133  LEU133     -0.1245
     98  CA        36.3380   12.6810   68.9280 C.3   133  LEU133      0.1561
     99  C         37.4840   11.7530   68.6570 C.2   133  LEU133      0.2260
    100  O         37.6900   11.3540   67.5100 O.2   133  LEU133     -0.2867
    101  CB        36.8570   14.1110   68.7960 C.3   133  LEU133      0.0270
    102  CG        35.8330   15.2000   69.0410 C.3   133  LEU133      0.0019
    103  CD1       36.5020   16.5450   68.7390 C.3   133  LEU133      0.0001
    104  CD2       34.5830   14.9980   68.1360 C.3   133  LEU133      0.0001
    105  N         30.1360   19.6390   72.5600 N.3   148  MET148     -0.1230
    106  CA        30.3020   20.0670   71.1800 C.3   148  MET148      0.1702
    107  C         28.9840   20.1310   70.4200 C.2   148  MET148      0.2593
    108  O         28.8920   20.8050   69.4030 O.2   148  MET148     -0.2718
    109  CB        31.3110   19.1840   70.4640 C.3   148  MET148      0.0401
    110  CG        32.6640   19.2440   71.0820 C.3   148  MET148      0.0596
    111  SD        33.9060   18.8780   69.9180 S.3   148  MET148     -0.1393
    112  CE        34.6390   20.4860   69.6540 C.3   148  MET148      0.0692
    113  N         27.9500   19.4850   70.9390 N.am  149  GLY149     -0.1942
    114  CA        26.6580   19.5300   70.2900 C.3   149  GLY149      0.2014
    115  C         26.0090   18.1730   70.2390 C.2   149  GLY149      0.2639
    116  O         26.5580   17.2180   70.7770 O.2   149  GLY149     -0.2714
    117  N         24.8320   18.0970   69.6180 N.am  150  GLY150     -0.1939
    118  CA        24.1000   16.8430   69.4920 C.3   150  GLY150      0.2014
    119  C         24.5070   16.1430   68.2050 C.2   150  GLY150      0.2639
    120  O         25.0180   16.7700   67.2760 O.2   150  GLY150     -0.2714
    121  N         24.2850   14.8410   68.1400 N.am  151  HIS151     -0.1959
    122  CA        24.6940   14.0800   66.9730 C.3   151  HIS151      0.1787
    123  C         23.7250   12.9320   66.7930 C.2   151  HIS151      0.2620
    124  O         23.3680   12.2670   67.7600 O.2   151  HIS151     -0.2715
    125  CB        26.1080   13.5500   67.1780 C.3   151  HIS151      0.0785
    126  CG        26.7250   12.9610   65.9510 C.ar  151  HIS151      0.0821
    127  ND1       27.4880   11.8200   65.9910 N.ar  151  HIS151     -0.2267
    128  CD2       26.7290   13.3740   64.6580 C.ar  151  HIS151      0.1154
    129  CE1       27.9470   11.5540   64.7800 C.ar  151  HIS151      0.1986
    130  NE2       27.4990   12.4820   63.9530 N.ar  151  HIS151     -0.2212
    131  N         23.2330   12.7600   65.5730 N.am  152  ALA152     -0.1977
    132  CA        22.2790   11.6960   65.2660 C.3   152  ALA152      0.1597
    133  C         23.0360   10.5800   64.5760 C.2   152  ALA152      0.2287
    134  O         23.8840   10.8400   63.6950 O.2   152  ALA152     -0.2864
    135  CB        21.2080   12.2190   64.3860 C.3   152  ALA152      0.0319
    136  N         31.0830    9.3220   59.7040 N.3   173  TRP173     -0.1241
    137  CA        32.3330   10.0750   59.5400 C.3   173  TRP173      0.1605
    138  C         33.3610    9.2810   58.7460 C.2   173  TRP173      0.2264
    139  O         34.5740    9.4010   58.9770 O.2   173  TRP173     -0.2867
    140  CB        32.9160   10.4670   60.9200 C.3   173  TRP173      0.0550
    141  CG        32.1150   11.5000   61.6980 C.ar  173  TRP173      0.0003
    142  CD1       30.9930   12.1570   61.2690 C.ar  173  TRP173      0.0946
    143  CD2       32.3570   11.9430   63.0380 C.ar  173  TRP173      0.0152
    144  NE1       30.5200   12.9850   62.2670 N.ar  173  TRP173     -0.2442
    145  CE2       31.3410   12.8710   63.3680 C.ar  173  TRP173      0.0810
    146  CE3       33.3450   11.6550   64.0000 C.ar  173  TRP173      0.0012
    147  CZ2       31.2540   13.5020   64.6200 C.ar  173  TRP173      0.0191
    148  CZ3       33.2710   12.2780   65.2620 C.ar  173  TRP173      0.0001
    149  CH2       32.2330   13.2030   65.5630 C.ar  173  TRP173      0.0015
    150  N         16.1980    9.6740   72.3870 N.3   197  GLU197     -0.1245
    151  CA        15.5370   10.1990   71.1710 C.3   197  GLU197      0.1567
    152  C         15.5410    9.1510   70.0460 C.2   197  GLU197      0.2260
    153  O         16.0110    9.4330   68.9700 O.2   197  GLU197     -0.2867
    154  CB        16.3400   11.3780   70.6440 C.3   197  GLU197      0.0388
    155  CG        16.0040   12.7130   71.2090 C.3   197  GLU197      0.1160
    156  CD        16.4470   13.8320   70.2630 C.2   197  GLU197      0.3649
    157  OE1       15.7230   14.1190   69.2830 O.co2 197  GLU197     -0.2457
    158  OE2       17.5190   14.4030   70.5150 O.co2 197  GLU197     -0.2457
@<TRIPOS>BOND
     1    56    55    1
     2    56    57    1
     3    56    59    1
     4    67    68    2
     5    67    66    1
     6    60    59    1
     7    44    42   ar
     8    44    43   ar
     9    57    58    2
    10    66    65    1
    11    66    69    1
    12    42    40   ar
    13     7     6    2
    14    43    41   ar
    15    65    63   am
    16   138   139    2
    17   138   137    1
    18     1     2    1
    19    69    70    1
    20    61    62    1
    21    63    64    2
    22    63    62    1
    23     6     8   am
    24     6     5    1
    25    35    36    1
    26    40    41   ar
    27    40    39    1
    28   137   136    1
    29   137   140    1
    30     5     2    1
    31     2     3    1
    32    70    71    1
    33    36    39    1
    34    36    37    1
    35   140   141    1
    36     9     3   am
    37     9    10    1
    38    12    11    2
    39     3     4    2
    40   142   141   ar
    41   142   144   ar
    42    71    73   ar
    43    71    72   ar
    44    11    10    1
    45    11    13    1
    46   141   143   ar
    47    37    45   am
    48    37    38    2
    49    31    30    2
    50    20    19    2
    51    14    13    2
    52    14    15    1
    53    45    46    1
    54   144   145   ar
    55    17    15   am
    56    17    18    1
    57    19    18    1
    58    19    28   am
    59    30    29    1
    60   143   145   ar
    61   143   146   ar
    62    15    16    2
    63    24    26   ar
    64    24    22   ar
    65    26    27   ar
    66    29    28    1
    67    29    32    1
    68   145   147   ar
    69    46    47    1
    70    46    49    1
    71    47    48    2
    72    18    21    1
    73   134   133    2
    74    28    34    1
    75    21    22    1
    76   130   128   ar
    77   130   129   ar
    78   146   148   ar
    79    22    23   ar
    80    52    54   ar
    81    52    50   ar
    82    54    53   ar
    83    27    25   ar
    84   135   132    1
    85    32    33    1
    86   133   132    1
    87   147   149   ar
    88    50    49    1
    89    50    51   ar
    90    53    51   ar
    91   128   126   ar
    92    34    33    1
    93   129   127   ar
    94    23    25   ar
    95   148   149   ar
    96   132   131    1
    97   131   123   am
    98   126   127   ar
    99   126   125    1
   100   123   122    1
   101   123   124    2
   102   122   125    1
   103   122   121    1
   104   120   119    2
   105   100    99    2
   106   104   102    1
   107   121   119   am
   108   119   118    1
   109    99    98    1
   110   103   102    1
   111   101    98    1
   112   101   102    1
   113    78    75    1
   114    98    97    1
   115    74    75    1
   116   153   152    2
   117    75    76    1
   118    88    89   ar
   119    88    86   ar
   120   157   156   ar
   121   108   107    2
   122    96    94    1
   123   118   117    1
   124   117   115   am
   125   112   111    1
   126    89    87   ar
   127   111   110    1
   128    86    84   ar
   129   152   151    1
   130    95    94    1
   131   115   114    1
   132   115   116    2
   133   156   158   ar
   134   156   155    1
   135   114   113    1
   136    94    91    1
   137   107   113   am
   138   107   106    1
   139    76    79   am
   140    76    77    2
   141   109   110    1
   142   109   106    1
   143    79    80    1
   144   154   151    1
   145   154   155    1
   146    82    81    2
   147   151   150    1
   148   106   105    1
   149    87    85   ar
   150    84    85   ar
   151    84    83    1
   152    80    81    1
   153    80    83    1
   154    91    90    1
   155    91    92    1
   156    92    93    2
