@<TRIPOS>MOLECULE
tmp/1sp5A00.pdb
 108 102 0 0 0
SMALL
GASTEIGER

@<TRIPOS>ATOM
      1  N         16.6960   27.0240   -1.5400 N.3    25  ASP25      -0.1239
      2  CA        16.6120   26.7680   -0.1080 C.3    25  ASP25       0.1674
      3  C         17.9570   26.5490    0.5840 C.2    25  ASP25       0.2266
      4  O         18.4760   25.4490    0.5660 O.2    25  ASP25      -0.2867
      5  CB        15.7010   25.5390    0.0190 C.3    25  ASP25       0.1410
      6  CG        15.3180   25.2020    1.4500 C.2    25  ASP25       0.3668
      7  OD1       15.9140   25.7610    2.3910 O.co2  25  ASP25      -0.2456
      8  OD2       14.4250   24.3560    1.6330 O.co2  25  ASP25      -0.2456
      9  N         18.5910   26.2770    3.6210 N.3    27  GLY27      -0.1210
     10  CA        18.4830   25.3920    4.7680 C.3    27  GLY27       0.1956
     11  C         18.4280   23.9170    4.3750 C.2    27  GLY27       0.2612
     12  O         18.2460   23.0410    5.2450 O.2    27  GLY27      -0.2717
     13  N         18.5550   23.6160    3.0880 N.am   28  ALA28      -0.1965
     14  CA        18.4980   22.2190    2.6350 C.3    28  ALA28       0.1728
     15  C         19.8600   21.7460    2.1280 C.2    28  ALA28       0.2616
     16  O         20.4630   22.3790    1.2440 O.2    28  ALA28      -0.2715
     17  CB        17.4380   22.0580    1.5010 C.3    28  ALA28       0.0334
     18  N         20.3520   20.6340    2.6840 N.am   29  ASP29      -0.1957
     19  CA        21.6390   20.0660    2.2410 C.3    29  ASP29       0.1840
     20  C         21.5320   19.5860    0.8020 C.2    29  ASP29       0.2622
     21  O         22.4860   19.6660    0.0170 O.2    29  ASP29      -0.2715
     22  CB        22.0090   18.8360    3.0590 C.3    29  ASP29       0.1450
     23  CG        22.2060   19.1240    4.5350 C.2    29  ASP29       0.3671
     24  OD1       22.4190   20.2860    4.9820 O.co2  29  ASP29      -0.2456
     25  OD2       22.1650   18.1240    5.2660 O.co2  29  ASP29      -0.2456
     26  N         20.3590   19.0420    0.4980 N.am   30  ASP30      -0.1971
     27  CA        20.0540   18.4750   -0.7990 C.3    30  ASP30       0.1709
     28  C         18.7950   18.9670   -1.5000 C.2    30  ASP30       0.2293
     29  O         17.9630   19.6840   -0.9310 O.2    30  ASP30      -0.2864
     30  CB        20.0070   16.9600   -0.6750 C.3    30  ASP30       0.1436
     31  CG        21.4030   16.3620   -0.6460 C.2    30  ASP30       0.3671
     32  OD1       22.1590   16.4520   -1.6730 O.co2  30  ASP30      -0.2456
     33  OD2       21.7520   15.8280    0.4200 O.co2  30  ASP30      -0.2456
     34  N         15.2810   18.2230   -3.3460 N.3    32  VAL32      -0.1245
     35  CA        14.1560   17.2990   -3.2460 C.3    32  VAL32       0.1561
     36  C         13.0650   17.8200   -4.1660 C.2    32  VAL32       0.2260
     37  O         12.5750   18.9540   -4.0130 O.2    32  VAL32      -0.2867
     38  CB        13.5700   17.2230   -1.7790 C.3    32  VAL32       0.0252
     39  CG1       12.5680   16.0700   -1.6870 C.3    32  VAL32       0.0019
     40  CG2       14.6890   17.0560   -0.7390 C.3    32  VAL32       0.0019
     41  N         17.0860    6.8010    0.4970 N.3    45  LYS45      -0.1231
     42  CA        17.6850    7.8800    1.2610 C.3    45  LYS45       0.1693
     43  C         16.6990    8.4150    2.2850 C.2    45  LYS45       0.2592
     44  O         15.5360    8.6580    1.9750 O.2    45  LYS45      -0.2718
     45  CB        18.0990    8.9870    0.2980 C.3    45  LYS45       0.0285
     46  CG        18.6160   10.2350    0.9260 C.3    45  LYS45       0.0035
     47  CD        19.9980   10.0400    1.4050 C.3    45  LYS45       0.0206
     48  CE        20.7690   11.3230    1.2460 C.3    45  LYS45       0.1093
     49  NZ        22.1720   11.0850    1.6470 N.3    45  LYS45      -0.1314
     50  N         17.1560    8.5960    3.5150 N.am   46  MET46      -0.1965
     51  CA        16.2870    9.1580    4.5470 C.3    46  MET46       0.1736
     52  C         16.6960   10.6120    4.6940 C.2    46  MET46       0.2616
     53  O         17.8940   10.9040    4.7350 O.2    46  MET46      -0.2715
     54  CB        16.5060    8.4780    5.9100 C.3    46  MET46       0.0427
     55  CG        16.0930    7.0230    5.9890 C.3    46  MET46       0.0599
     56  SD        14.3390    6.8570    5.7240 S.3    46  MET46      -0.1393
     57  CE        13.6580    7.6490    7.2680 C.3    46  MET46       0.0692
     58  N         15.7180   11.5200    4.7480 N.am   47  ILE47      -0.1963
     59  CA        16.0210   12.9440    4.9640 C.3    47  ILE47       0.1727
     60  C         15.2030   13.4060    6.1700 C.2    47  ILE47       0.2617
     61  O         14.1280   12.8570    6.4500 O.2    47  ILE47      -0.2715
     62  CB        15.6860   13.8190    3.7330 C.3    47  ILE47       0.0290
     63  CG1       14.2260   13.6410    3.3370 C.3    47  ILE47       0.0022
     64  CG2       16.6060   13.4460    2.5750 C.3    47  ILE47       0.0023
     65  CD1       13.7870   14.5750    2.1900 C.3    47  ILE47       0.0001
     66  N         15.7330   14.3790    6.9070 N.am   48  GLY48      -0.1940
     67  CA        15.0370   14.8940    8.0670 C.3    48  GLY48       0.2014
     68  C         14.6390   16.3440    7.8400 C.2    48  GLY48       0.2639
     69  O         15.4410   17.1500    7.3760 O.2    48  GLY48      -0.2714
     70  N         13.3900   16.6690    8.1400 N.am   49  GLY49      -0.1939
     71  CA        12.9190   18.0280    7.9770 C.3    49  GLY49       0.2014
     72  C         12.2900   18.5060    9.2770 C.2    49  GLY49       0.2638
     73  O         12.4330   17.8870   10.3400 O.2    49  GLY49      -0.2714
     74  N         11.5720   19.6150    9.1900 N.am   50  ILE50      -0.1977
     75  CA        10.9020   20.2080   10.3500 C.3    50  ILE50       0.1596
     76  C          9.8770   19.2750   11.0030 C.2    50  ILE50       0.2287
     77  O          9.6870   19.3270   12.2190 O.2    50  ILE50      -0.2864
     78  CB        10.1930   21.5450    9.9550 C.3    50  ILE50       0.0276
     79  CG1        9.9670   22.4030   11.1990 C.3    50  ILE50       0.0022
     80  CG2        8.8860   21.2750    9.2200 C.3    50  ILE50       0.0022
     81  CD1       11.1960   23.1660   11.6390 C.3    50  ILE50       0.0001
     82  N         11.4100   12.5530    9.8380 N.3    53  PHE53      -0.1241
     83  CA        12.1350   11.9350    8.7220 C.3    53  PHE53       0.1605
     84  C         11.2080   11.2700    7.6940 C.2    53  PHE53       0.2264
     85  O         10.1410   10.7460    8.0470 O.2    53  PHE53      -0.2867
     86  CB        13.1110   10.8690    9.2520 C.3    53  PHE53       0.0534
     87  CG        14.1740   11.4190   10.1460 C.ar   53  PHE53      -0.0203
     88  CD1       13.9030   11.7050   11.4730 C.ar   53  PHE53      -0.0042
     89  CD2       15.4250   11.7330    9.6340 C.ar   53  PHE53      -0.0042
     90  CE1       14.8530   12.3000   12.2760 C.ar   53  PHE53      -0.0003
     91  CE2       16.3970   12.3390   10.4380 C.ar   53  PHE53      -0.0003
     92  CZ        16.1030   12.6220   11.7600 C.ar   53  PHE53      -0.0000
     93  N         16.7370   14.2030   -5.1820 N.3    76  LEU76      -0.1245
     94  CA        15.9340   13.2790   -4.3910 C.3    76  LEU76       0.1561
     95  C         14.4850   13.5200   -4.8130 C.2    76  LEU76       0.2260
     96  O         14.1050   14.6480   -5.1380 O.2    76  LEU76      -0.2867
     97  CB        16.1030   13.5680   -2.8980 C.3    76  LEU76       0.0270
     98  CG        17.5610   13.6590   -2.4160 C.3    76  LEU76       0.0019
     99  CD1       17.5800   13.9500   -0.9290 C.3    76  LEU76       0.0001
    100  CD2       18.3110   12.3450   -2.7490 C.3    76  LEU76       0.0001
    101  N         12.4390   21.7100   -3.9920 N.3    84  ILE84      -0.1245
    102  CA        13.4830   22.3770   -3.2250 C.3    84  ILE84       0.1561
    103  C         14.8600   22.2450   -3.8660 C.2    84  ILE84       0.2260
    104  O         15.2930   21.1320   -4.1400 O.2    84  ILE84      -0.2867
    105  CB        13.5770   21.7380   -1.8040 C.3    84  ILE84       0.0252
    106  CG1       12.3290   22.0560   -0.9910 C.3    84  ILE84       0.0019
    107  CG2       14.8210   22.2400   -1.0580 C.3    84  ILE84       0.0019
    108  CD1       12.2060   21.1690    0.2520 C.3    84  ILE84       0.0001
@<TRIPOS>BOND
     1    93    94    1
     2    96    95    2
     3    95    94    1
     4    94    97    1
     5    36    37    2
     6    36    35    1
     7   104   103    2
     8   101   102    1
     9   103   102    1
    10    34    35    1
    11    35    38    1
    12   102   105    1
    13    97    98    1
    14   100    98    1
    15    98    99    1
    16   105   107    1
    17   105   106    1
    18    38    39    1
    19    38    40    1
    20    32    31   ar
    21     1     2    1
    22    28    29    2
    23    28    27    1
    24   106   108    1
    25    27    30    1
    26    27    26    1
    27    30    31    1
    28    31    33   ar
    29     2     5    1
    30     2     3    1
    31    21    20    2
    32     5     6    1
    33    45    46    1
    34    45    42    1
    35    41    42    1
    36    26    20   am
    37     4     3    2
    38    20    19    1
    39    46    47    1
    40    16    15    2
    41    48    47    1
    42    48    49    1
    43    42    43    1
    44     6     8   ar
    45     6     7   ar
    46    17    14    1
    47    44    43    2
    48    15    14    1
    49    15    18   am
    50    65    63    1
    51    19    18    1
    52    19    22    1
    53    43    50   am
    54    64    62    1
    55    14    13    1
    56    22    23    1
    57    13    11   am
    58    63    62    1
    59    50    51    1
    60     9    10    1
    61    62    59    1
    62    11    10    1
    63    11    12    2
    64    23    24   ar
    65    23    25   ar
    66    51    52    1
    67    51    54    1
    68    52    53    2
    69    52    58   am
    70    58    59    1
    71    59    60    1
    72    56    55    1
    73    56    57    1
    74    54    55    1
    75    60    61    2
    76    60    66   am
    77    66    67    1
    78    69    68    2
    79    84    85    2
    80    84    83    1
    81    68    67    1
    82    68    70   am
    83    71    70    1
    84    71    72    1
    85    83    86    1
    86    83    82    1
    87    74    72   am
    88    74    75    1
    89    80    78    1
    90    86    87    1
    91    72    73    2
    92    89    87   ar
    93    89    91   ar
    94    78    75    1
    95    78    79    1
    96    87    88   ar
    97    75    76    1
    98    91    92   ar
    99    76    77    2
   100    79    81    1
   101    88    90   ar
   102    92    90   ar
