@<TRIPOS>MOLECULE
tmp/1spaA00.pdb
 147 140 0 0 0
SMALL
GASTEIGER

@<TRIPOS>ATOM
      1  N         21.9650    0.1740   -6.2890 N.3   102  GLY102     -0.1210
      2  CA        22.1110    1.0920   -7.3810 C.3   102  GLY102      0.1956
      3  C         23.1200    0.5350   -8.3460 C.2   102  GLY102      0.2612
      4  O         23.7550   -0.4750   -8.0890 O.2   102  GLY102     -0.2717
      5  N         23.1550    1.1300   -9.5230 N.am  103  GLY103     -0.1942
      6  CA        24.2240    0.9080  -10.4550 C.3   103  GLY103      0.2014
      7  C         25.5360    1.4270   -9.8720 C.2   103  GLY103      0.2639
      8  O         26.5370    0.7810  -10.1640 O.2   103  GLY103     -0.2714
      9  N         25.6430    2.5070   -9.0630 N.am  104  THR104     -0.1950
     10  CA        26.9180    2.8800   -8.4490 C.3   104  THR104      0.1897
     11  C         27.3960    1.8160   -7.4900 C.2   104  THR104      0.2313
     12  O         28.5760    1.5010   -7.4800 O.2   104  THR104     -0.2863
     13  CB        26.8200    4.1780   -7.6650 C.3   104  THR104      0.1794
     14  OG1       26.2300    5.0920   -8.5560 O.3   104  THR104     -0.2208
     15  CG2       28.1420    4.8090   -7.2820 C.3   104  THR104      0.0378
     16  N         29.0830   -0.8600   -9.4770 N.3   107  LEU107     -0.1245
     17  CA        30.4350   -0.4470   -9.8390 C.3   107  LEU107      0.1561
     18  C         31.3020   -0.5400   -8.5850 C.2   107  LEU107      0.2260
     19  O         32.3340   -1.1810   -8.6700 O.2   107  LEU107     -0.2867
     20  CB        30.4450    0.9900  -10.3560 C.3   107  LEU107      0.0270
     21  CG        29.6600    1.3560  -11.6000 C.3   107  LEU107      0.0019
     22  CD1       29.6010    2.8450  -11.6410 C.3   107  LEU107      0.0001
     23  CD2       30.2850    0.8340  -12.8730 C.3   107  LEU107      0.0001
     24  N         30.8000    9.6840  -16.8620 N.3   130  TRP130     -0.1241
     25  CA        30.1040   10.1160  -15.6520 C.3   130  TRP130      0.1605
     26  C         31.2680   10.1990  -14.6250 C.2   130  TRP130      0.2264
     27  O         32.0430    9.2320  -14.4510 O.2   130  TRP130     -0.2867
     28  CB        29.0150    9.0570  -15.2320 C.3   130  TRP130      0.0550
     29  CG        28.3480    9.2510  -13.8590 C.ar  130  TRP130      0.0003
     30  CD1       27.7800   10.4480  -13.5010 C.ar  130  TRP130      0.0946
     31  CD2       28.2140    8.3130  -12.8590 C.ar  130  TRP130      0.0152
     32  NE1       27.2890   10.2760  -12.2970 N.ar  130  TRP130     -0.2442
     33  CE2       27.5410    9.0240  -11.8800 C.ar  130  TRP130      0.0810
     34  CE3       28.5610    6.9970  -12.6080 C.ar  130  TRP130      0.0012
     35  CZ2       27.1900    8.4200  -10.6900 C.ar  130  TRP130      0.0191
     36  CZ3       28.2270    6.3820  -11.4140 C.ar  130  TRP130      0.0001
     37  CH2       27.5450    7.0990  -10.4620 C.ar  130  TRP130      0.0015
     38  N         32.3880    7.5420  -11.7050 N.3   133  HIS133     -0.1241
     39  CA        33.0720    6.2880  -11.9520 C.3   133  HIS133      0.1621
     40  C         34.4960    6.3400  -11.3600 C.2   133  HIS133      0.2264
     41  O         34.8580    5.5060  -10.5310 O.2   133  HIS133     -0.2867
     42  CB        33.1770    6.0400  -13.4260 C.3   133  HIS133      0.0745
     43  CG        31.8680    5.8170  -14.1410 C.ar  133  HIS133      0.0817
     44  ND1       31.4580    6.3470  -15.2820 N.ar  133  HIS133     -0.2268
     45  CD2       30.8810    4.9960  -13.6860 C.ar  133  HIS133      0.1154
     46  CE1       30.2630    5.8750  -15.5200 C.ar  133  HIS133      0.1986
     47  NE2       29.9280    5.0660  -14.5520 N.ar  133  HIS133     -0.2212
     48  N         30.1790    2.3220  -21.6800 N.3   178  HIS178     -0.1241
     49  CA        28.8160    2.6610  -21.3610 C.3   178  HIS178      0.1621
     50  C         27.9830    1.8750  -22.3260 C.2   178  HIS178      0.2264
     51  O         28.1620    2.0990  -23.5150 O.2   178  HIS178     -0.2867
     52  CB        28.5280    4.0910  -21.5940 C.3   178  HIS178      0.0745
     53  CG        29.1190    5.0110  -20.5720 C.ar  178  HIS178      0.0817
     54  ND1       28.5200    6.0870  -20.0930 N.ar  178  HIS178     -0.2268
     55  CD2       30.4060    4.9780  -20.0970 C.ar  178  HIS178      0.1154
     56  CE1       29.3910    6.7330  -19.3690 C.ar  178  HIS178      0.1986
     57  NE2       30.5180    6.0670  -19.3740 N.ar  178  HIS178     -0.2212
     58  N         26.8740    8.6370  -20.9260 N.3   183  ASN183     -0.1240
     59  CA        26.8570    9.8490  -20.1240 C.3   183  ASN183      0.1653
     60  C         28.3070   10.3750  -20.1390 C.2   183  ASN183      0.2266
     61  O         29.2060    9.5920  -19.8200 O.2   183  ASN183     -0.2867
     62  CB        26.3730    9.3790  -18.8020 C.3   183  ASN183      0.1155
     63  CG        26.1110   10.4400  -17.7890 C.2   183  ASN183      0.2627
     64  OD1       26.6280   11.5460  -17.8210 O.2   183  ASN183     -0.2716
     65  ND2       25.2630   10.1280  -16.8430 N.am  183  ASN183     -0.0877
     66  N         28.8030   -0.3310  -18.0350 N.3   211  ALA211     -0.1245
     67  CA        28.1040    0.4530  -17.0860 C.3   211  ALA211      0.1562
     68  C         26.8290    0.5560  -17.9150 C.2   211  ALA211      0.2260
     69  O         26.8390    1.0130  -19.0680 O.2   211  ALA211     -0.2867
     70  CB        28.7570    1.7730  -16.9580 C.3   211  ALA211      0.0290
     71  N         23.3640    2.0240  -17.4130 N.3   213  ALA213     -0.1231
     72  CA        22.4020    2.7150  -16.5850 C.3   213  ALA213      0.1694
     73  C         21.1050    3.1220  -17.2580 C.2   213  ALA213      0.2592
     74  O         20.2110    3.6440  -16.5840 O.2   213  ALA213     -0.2718
     75  CB        22.9990    3.9760  -16.0280 C.3   213  ALA213      0.0304
     76  N         20.9460    2.9510  -18.5710 N.am  214  TYR214     -0.1976
     77  CA        19.8460    3.5870  -19.2470 C.3   214  TYR214      0.1639
     78  C         19.3080    2.6470  -20.2980 C.2   214  TYR214      0.2290
     79  O         18.9990    3.0270  -21.4250 O.2   214  TYR214     -0.2864
     80  CB        20.2830    4.8820  -19.9400 C.3   214  TYR214      0.0560
     81  CG        20.9550    5.9520  -19.0950 C.ar  214  TYR214     -0.0198
     82  CD1       20.2090    6.7370  -18.2640 C.ar  214  TYR214     -0.0009
     83  CD2       22.3250    6.0990  -19.1100 C.ar  214  TYR214     -0.0009
     84  CE1       20.8170    7.6340  -17.4290 C.ar  214  TYR214      0.0417
     85  CE2       22.9280    7.0130  -18.2740 C.ar  214  TYR214      0.0417
     86  CZ        22.1620    7.7620  -17.4390 C.ar  214  TYR214      0.1957
     87  OH        22.7660    8.5920  -16.5360 O.3   214  TYR214     -0.2866
     88  N         27.4890   -3.7630  -14.7420 N.3   241  ALA241     -0.1245
     89  CA        26.9100   -3.0330  -13.6590 C.3   241  ALA241      0.1562
     90  C         25.6290   -2.3530  -14.2320 C.2   241  ALA241      0.2260
     91  O         25.6950   -1.4580  -15.0700 O.2   241  ALA241     -0.2867
     92  CB        27.8880   -1.9770  -13.1970 C.3   241  ALA241      0.0290
     93  N         21.6880   -0.5370  -13.6660 N.3   243  SER243     -0.1217
     94  CA        20.8700    0.2350  -12.7820 C.3   243  SER243      0.1889
     95  C         19.4330    0.2060  -13.3020 C.2   243  SER243      0.2288
     96  O         19.1800    0.0850  -14.4970 O.2   243  SER243     -0.2866
     97  CB        21.4370    1.5880  -12.8100 C.3   243  SER243      0.2089
     98  OG        20.7760    2.5130  -11.9880 O.3   243  SER243     -0.2183
     99  N         17.5220    2.6150  -11.7470 N.3   245  SER245     -0.1202
    100  CA        17.1390    3.8930  -11.2790 C.3   245  SER245      0.2020
    101  C         16.4110    4.7300  -12.3070 C.2   245  SER245      0.2618
    102  O         15.3170    5.1330  -11.9250 O.2   245  SER245     -0.2717
    103  CB        18.3830    4.5760  -10.7900 C.3   245  SER245      0.2103
    104  OG        18.9470    3.8390   -9.7200 O.3   245  SER245     -0.2182
    105  N         16.8150    4.9940  -13.5460 N.am  246  LYS246     -0.1979
    106  CA        16.0870    5.9320  -14.3960 C.3   246  LYS246      0.1596
    107  C         14.8480    5.3080  -15.0220 C.2   246  LYS246      0.2287
    108  O         13.7120    5.7620  -14.9290 O.2   246  LYS246     -0.2864
    109  CB        16.9960    6.4420  -15.5190 C.3   246  LYS246      0.0298
    110  CG        18.4330    6.7530  -15.1150 C.3   246  LYS246      0.0038
    111  CD        18.6140    7.9820  -14.2470 C.3   246  LYS246      0.0206
    112  CE        19.9900    7.9520  -13.6110 C.3   246  LYS246      0.1093
    113  NZ        20.2060    9.0330  -12.6700 N.3   246  LYS246     -0.1314
    114  N         14.9970    5.8420   -8.5200 N.3   251  TYR251     -0.1241
    115  CA        16.2570    6.4270   -8.1370 C.3   251  TYR251      0.1605
    116  C         16.6090    6.1350   -6.7020 C.2   251  TYR251      0.2264
    117  O         17.5960    5.4270   -6.4400 O.2   251  TYR251     -0.2867
    118  CB        16.1880    7.9050   -8.3260 C.3   251  TYR251      0.0534
    119  CG        15.7970    8.3010   -9.7280 C.ar  251  TYR251     -0.0201
    120  CD1       16.7510    8.3060  -10.7190 C.ar  251  TYR251     -0.0009
    121  CD2       14.4780    8.6060  -10.0180 C.ar  251  TYR251     -0.0009
    122  CE1       16.3550    8.6040  -11.9910 C.ar  251  TYR251      0.0417
    123  CE2       14.1030    8.8900  -11.3030 C.ar  251  TYR251      0.0417
    124  CZ        15.0440    8.8810  -12.2920 C.ar  251  TYR251      0.1957
    125  OH        14.6780    9.0410  -13.6270 O.3   251  TYR251     -0.2866
    126  N         17.5370    2.4860   -4.7970 N.3   254  ARG254     -0.1245
    127  CA        18.8690    1.9430   -4.9730 C.3   254  ARG254      0.1563
    128  C         18.7870    0.5910   -5.5340 C.2   254  ARG254      0.2260
    129  O         18.9760   -0.4180   -4.8630 O.2   254  ARG254     -0.2867
    130  CB        19.5880    1.9470   -3.6330 C.3   254  ARG254      0.0307
    131  CG        19.5820    3.2900   -2.9870 C.3   254  ARG254      0.0489
    132  CD        19.8780    4.4030   -3.9360 C.3   254  ARG254      0.2205
    133  NE        21.2660    4.3630   -4.4020 N.pl3 254  ARG254     -0.0865
    134  CZ        21.5780    4.6090   -5.6700 C.cat 254  ARG254      0.5346
    135  NH1       20.6180    4.7550   -6.5940 N.pl3 254  ARG254      0.1354
    136  NH2       22.8560    4.5900   -6.0190 N.pl3 254  ARG254      0.1354
    137  N         21.2000   13.1380  -21.9100 N.3   348  PHE348     -0.1241
    138  CA        22.3060   14.0900  -21.9460 C.3   348  PHE348      0.1605
    139  C         23.0310   14.2420  -23.2600 C.2   348  PHE348      0.2264
    140  O         23.1830   13.3140  -24.0680 O.2   348  PHE348     -0.2867
    141  CB        23.3750   13.7280  -20.9360 C.3   348  PHE348      0.0534
    142  CG        22.8260   13.4210  -19.5570 C.ar  348  PHE348     -0.0203
    143  CD1       22.4980   14.4510  -18.7080 C.ar  348  PHE348     -0.0042
    144  CD2       22.6440   12.1140  -19.2120 C.ar  348  PHE348     -0.0042
    145  CE1       21.9940   14.1720  -17.4790 C.ar  348  PHE348     -0.0003
    146  CE2       22.1360   11.8260  -17.9770 C.ar  348  PHE348     -0.0003
    147  CZ        21.8110   12.8580  -17.1260 C.ar  348  PHE348     -0.0000
@<TRIPOS>BOND
     1   140   139    2
     2    51    50    2
     3   139   138    1
     4    50    49    1
     5   138   137    1
     6   138   141    1
     7    48    49    1
     8    52    49    1
     9    52    53    1
    10    79    78    2
    11   141   142    1
    12    58    59    1
    13    53    55   ar
    14    53    54   ar
    15    78    77    1
    16    60    59    1
    17    60    61    2
    18    59    62    1
    19    55    57   ar
    20    54    56   ar
    21    80    77    1
    22    80    81    1
    23   142   144   ar
    24   142   143   ar
    25    57    56   ar
    26    77    76    1
    27   144   146   ar
    28    83    81   ar
    29    83    85   ar
    30    81    82   ar
    31    69    68    2
    32    62    63    1
    33   143   145   ar
    34    76    73   am
    35    85    86   ar
    36    82    84   ar
    37    66    67    1
    38   146   147   ar
    39    68    67    1
    40    64    63    2
    41    63    65   am
    42   145   147   ar
    43    86    84   ar
    44    86    87    1
    45    71    72    1
    46    73    72    1
    47    73    74    2
    48    67    70    1
    49    24    25    1
    50    72    75    1
    51    25    28    1
    52    25    26    1
    53    46    44   ar
    54    46    47   ar
    55   109   110    1
    56   109   106    1
    57    44    43   ar
    58    28    29    1
    59   110   111    1
    60    91    90    2
    61   107   108    2
    62   107   106    1
    63    88    89    1
    64    26    27    2
    65    47    45   ar
    66    96    95    2
    67   106   105    1
    68   111   112    1
    69    90    89    1
    70    43    45   ar
    71    43    42    1
    72    29    30   ar
    73    29    31   ar
    74    93    94    1
    75    89    92    1
    76   125   124    1
    77   112   113    1
    78   105   101   am
    79    30    32   ar
    80    42    39    1
    81    95    94    1
    82    23    21    1
    83    31    34   ar
    84    31    33   ar
    85    97    94    1
    86    97    98    1
    87    34    36   ar
    88   101   102    2
    89   101   100    1
    90    32    33   ar
    91   124   122   ar
    92   124   123   ar
    93   122   120   ar
    94    39    38    1
    95    39    40    1
    96    33    35   ar
    97    99   100    1
    98    22    21    1
    99    21    20    1
   100    36    37   ar
   101    40    41    2
   102   123   121   ar
   103   100   103    1
   104   103   104    1
   105   120   119   ar
   106    35    37   ar
   107     6     7    1
   108     6     5    1
   109    20    17    1
   110     8     7    2
   111   121   119   ar
   112     7     9   am
   113    17    16    1
   114    17    18    1
   115   119   118    1
   116     5     3   am
   117     9    10    1
   118    19    18    2
   119    14    13    1
   120   114   115    1
   121    10    13    1
   122    10    11    1
   123     3     4    2
   124     3     2    1
   125   118   115    1
   126   115   116    1
   127    13    15    1
   128    11    12    2
   129     2     1    1
   130   116   117    2
   131   135   134    1
   132   136   134    1
   133   134   133    2
   134   128   127    1
   135   128   129    2
   136   127   126    1
   137   127   130    1
   138   133   132    1
   139   132   131    1
   140   130   131    1
