@<TRIPOS>MOLECULE
tmp/1spgA00.pdb
 216 205 0 0 0
SMALL
GASTEIGER

@<TRIPOS>ATOM
      1  N          8.3420   -0.8230  -16.9360 N.3    32  MET32      -0.1245
      2  CA         7.1270   -0.9660  -16.1410 C.3    32  MET32       0.1570
      3  C          6.1350   -1.9350  -16.7900 C.2    32  MET32       0.2261
      4  O          5.5710   -2.8130  -16.1220 O.2    32  MET32      -0.2867
      5  CB         6.4720    0.3940  -15.9740 C.3    32  MET32       0.0387
      6  CG         5.1610    0.3590  -15.2120 C.3    32  MET32       0.0595
      7  SD         4.4110    1.9780  -15.1230 S.3    32  MET32      -0.1393
      8  CE         3.8840    2.2080  -16.7970 C.3    32  MET32       0.0692
      9  N          0.0810   -3.0300  -15.5880 N.3    39  THR39      -0.1218
     10  CA         0.0350   -1.6680  -16.1140 C.3    39  THR39       0.1862
     11  C         -0.2940   -1.6130  -17.6100 C.2    39  THR39       0.2287
     12  O         -0.8040   -0.6090  -18.1060 O.2    39  THR39      -0.2866
     13  CB         1.3700   -0.9110  -15.8340 C.3    39  THR39       0.1770
     14  OG1        2.4680   -1.6200  -16.4170 O.3    39  THR39      -0.2211
     15  CG2        1.6060   -0.7760  -14.3410 C.3    39  THR39       0.0375
     16  N         -3.5390   -0.2410  -19.4080 N.3    42  TYR42      -0.1227
     17  CA        -3.7690    1.1630  -19.7400 C.3    42  TYR42       0.1736
     18  C         -3.2290    1.5220  -21.1300 C.2    42  TYR42       0.2595
     19  O         -3.4890    2.6170  -21.6500 O.2    42  TYR42      -0.2718
     20  CB        -3.1250    2.0680  -18.6830 C.3    42  TYR42       0.0548
     21  CG        -3.6600    1.8500  -17.2910 C.ar   42  TYR42      -0.0200
     22  CD1       -3.1030    0.8850  -16.4530 C.ar   42  TYR42      -0.0009
     23  CD2       -4.7600    2.5590  -16.8340 C.ar   42  TYR42      -0.0009
     24  CE1       -3.6310    0.6270  -15.2060 C.ar   42  TYR42       0.0417
     25  CE2       -5.2950    2.3060  -15.5840 C.ar   42  TYR42       0.0417
     26  CZ        -4.7280    1.3340  -14.7870 C.ar   42  TYR42       0.1957
     27  OH        -5.3020    1.0370  -13.5900 O.3    42  TYR42      -0.2866
     28  N         -2.5030    0.5920  -21.7450 N.am   43  PHE43      -0.1976
     29  CA        -1.9230    0.8480  -23.0550 C.3    43  PHE43       0.1639
     30  C         -2.2820   -0.1830  -24.1170 C.2    43  PHE43       0.2290
     31  O         -1.5560   -0.3340  -25.0930 O.2    43  PHE43      -0.2864
     32  CB        -0.4060    0.9600  -22.9250 C.3    43  PHE43       0.0560
     33  CG         0.0320    1.9540  -21.8940 C.ar   43  PHE43      -0.0200
     34  CD1        0.2150    1.5690  -20.5710 C.ar   43  PHE43      -0.0042
     35  CD2        0.2730    3.2720  -22.2410 C.ar   43  PHE43      -0.0042
     36  CE1        0.6300    2.4890  -19.6170 C.ar   43  PHE43      -0.0003
     37  CE2        0.6860    4.1850  -21.2870 C.ar   43  PHE43      -0.0003
     38  CZ         0.8650    3.7950  -19.9880 C.ar   43  PHE43      -0.0000
     39  N         -4.3240   -0.0950  -26.5460 N.3    45  GLU45      -0.1231
     40  CA        -4.5470    0.4880  -27.8700 C.3    45  GLU45       0.1699
     41  C         -3.2760    0.4450  -28.6940 C.2    45  GLU45       0.2592
     42  O         -3.3510    0.5600  -29.9140 O.2    45  GLU45      -0.2718
     43  CB        -4.9250    1.9640  -27.7760 C.3    45  GLU45       0.0402
     44  CG        -6.1650    2.2700  -27.0250 C.3    45  GLU45       0.1161
     45  CD        -6.1540    2.4000  -25.5390 C.2    45  GLU45       0.3649
     46  OE1       -5.0800    2.2160  -24.9200 O.co2  45  GLU45      -0.2457
     47  OE2       -7.2260    2.7120  -24.9910 O.co2  45  GLU45      -0.2457
     48  N         -2.1250    0.4830  -28.0230 N.am   46  TRP46      -0.1976
     49  CA        -0.8210    0.4700  -28.6770 C.3    46  TRP46       0.1640
     50  C         -0.5830   -0.8950  -29.3150 C.2    46  TRP46       0.2290
     51  O         -1.0940   -1.9330  -28.8720 O.2    46  TRP46      -0.2864
     52  CB         0.2950    0.8330  -27.6790 C.3    46  TRP46       0.0576
     53  CG         0.2290    2.2700  -27.2360 C.ar   46  TRP46       0.0006
     54  CD1       -0.6220    3.2200  -27.7160 C.ar   46  TRP46       0.0946
     55  CD2        1.0420    2.9310  -26.2410 C.ar   46  TRP46       0.0152
     56  NE1       -0.3910    4.4260  -27.0910 N.ar   46  TRP46      -0.2442
     57  CE2        0.6280    4.2780  -26.1890 C.ar   46  TRP46       0.0810
     58  CE3        2.0770    2.5170  -25.3980 C.ar   46  TRP46       0.0012
     59  CZ2        1.2010    5.2030  -25.3250 C.ar   46  TRP46       0.0191
     60  CZ3        2.6350    3.4330  -24.5470 C.ar   46  TRP46       0.0001
     61  CH2        2.2020    4.7620  -24.5200 C.ar   46  TRP46       0.0015
     62  N          6.5780    7.7080  -26.1080 N.3    60  HIS60      -0.1241
     63  CA         5.8490    8.1280  -24.9220 C.3    60  HIS60       0.1621
     64  C          6.8310    8.2660  -23.7530 C.2    60  HIS60       0.2264
     65  O          6.5470    8.9720  -22.7730 O.2    60  HIS60      -0.2867
     66  CB         4.7660    7.1330  -24.5690 C.3    60  HIS60       0.0745
     67  CG         3.6940    7.7090  -23.7110 C.ar   60  HIS60       0.0817
     68  ND1        2.8180    8.6690  -24.1710 N.ar   60  HIS60      -0.2268
     69  CD2        3.3420    7.4600  -22.4320 C.ar   60  HIS60       0.1154
     70  CE1        1.9720    8.9820  -23.2110 C.ar   60  HIS60       0.1986
     71  NE2        2.2670    8.2630  -22.1420 N.ar   60  HIS60      -0.2212
     72  N          7.9790   11.5920  -23.6780 N.3    63  VAL63      -0.1231
     73  CA         6.8130   12.3560  -23.2470 C.3    63  VAL63       0.1692
     74  C          6.6990   12.4720  -21.7330 C.2    63  VAL63       0.2591
     75  O          6.5810   13.5800  -21.1980 O.2    63  VAL63      -0.2718
     76  CB         5.5350   11.7800  -23.8080 C.3    63  VAL63       0.0266
     77  CG1        4.3400   12.3870  -23.1210 C.3    63  VAL63       0.0020
     78  CG2        5.4610   12.0960  -25.2690 C.3    63  VAL63       0.0020
     79  N          6.7470   11.3470  -21.0300 N.am   64  ILE64      -0.1980
     80  CA         6.6560   11.4000  -19.5840 C.3    64  ILE64       0.1595
     81  C          7.7950   12.2360  -19.0120 C.2    64  ILE64       0.2287
     82  O          7.5580   13.1490  -18.2260 O.2    64  ILE64      -0.2864
     83  CB         6.7380   10.0180  -18.9530 C.3    64  ILE64       0.0276
     84  CG1        5.6350    9.1150  -19.4830 C.3    64  ILE64       0.0022
     85  CG2        6.5740   10.1240  -17.4490 C.3    64  ILE64       0.0022
     86  CD1        5.5900    7.7950  -18.7380 C.3    64  ILE64       0.0001
     87  N          7.2880   15.8440  -19.2060 N.3    67  ALA67      -0.1231
     88  CA         6.3400   16.3360  -18.2280 C.3    67  ALA67       0.1694
     89  C          7.0610   16.4130  -16.8720 C.2    67  ALA67       0.2591
     90  O          6.9220   17.3910  -16.1290 O.2    67  ALA67      -0.2718
     91  CB         5.0950   15.4340  -18.1740 C.3    67  ALA67       0.0304
     92  N          7.9010   15.4200  -16.5980 N.am   68  VAL68      -0.1980
     93  CA         8.6490   15.3910  -15.3540 C.3    68  VAL68       0.1595
     94  C          9.6670   16.5310  -15.3280 C.2    68  VAL68       0.2287
     95  O          9.8670   17.1830  -14.2970 O.2    68  VAL68      -0.2864
     96  CB         9.3130   14.0380  -15.1300 C.3    68  VAL68       0.0276
     97  CG1       10.0170   14.0320  -13.7650 C.3    68  VAL68       0.0022
     98  CG2        8.2510   12.9420  -15.1730 C.3    68  VAL68       0.0022
     99  N          0.3050   20.9070  -12.5730 N.3    82  LEU82      -0.1245
    100  CA        -0.0220   19.5760  -13.0470 C.3    82  LEU82       0.1561
    101  C         -1.5150   19.2640  -13.1560 C.2    82  LEU82       0.2260
    102  O         -1.8590   18.1410  -13.5130 O.2    82  LEU82      -0.2867
    103  CB         0.6530   18.5180  -12.1620 C.3    82  LEU82       0.0270
    104  CG         2.1490   18.1850  -12.2580 C.3    82  LEU82       0.0019
    105  CD1        2.4760   17.5320  -13.5860 C.3    82  LEU82       0.0001
    106  CD2        3.0050   19.4070  -12.0500 C.3    82  LEU82       0.0001
    107  N         -2.6720   17.2200  -16.2800 N.3    85  LEU85      -0.1245
    108  CA        -2.2400   15.8290  -16.3490 C.3    85  LEU85       0.1561
    109  C         -3.0920   15.0240  -15.3810 C.2    85  LEU85       0.2260
    110  O         -3.3520   13.8420  -15.6050 O.2    85  LEU85      -0.2867
    111  CB        -0.7730   15.6910  -15.9650 C.3    85  LEU85       0.0270
    112  CG         0.1520   16.0390  -17.1170 C.3    85  LEU85       0.0019
    113  CD1        1.5900   15.7970  -16.7280 C.3    85  LEU85       0.0001
    114  CD2       -0.2220   15.1780  -18.2970 C.3    85  LEU85       0.0001
    115  N         -6.5050   14.4530  -16.8140 N.3    88  LEU88      -0.1231
    116  CA        -6.3380   13.3960  -17.8030 C.3    88  LEU88       0.1693
    117  C         -6.2200   12.0130  -17.1380 C.2    88  LEU88       0.2592
    118  O         -6.9390   11.0800  -17.4910 O.2    88  LEU88      -0.2718
    119  CB        -5.0840   13.6590  -18.6410 C.3    88  LEU88       0.0284
    120  CG        -4.6460   12.4860  -19.5130 C.3    88  LEU88       0.0019
    121  CD1       -5.6020   12.3200  -20.6720 C.3    88  LEU88       0.0001
    122  CD2       -3.2480   12.6800  -19.9890 C.3    88  LEU88       0.0001
    123  N         -5.3230   11.8980  -16.1640 N.am   89  HIS89      -0.1976
    124  CA        -5.0690   10.6420  -15.4610 C.3    89  HIS89       0.1656
    125  C         -6.1250   10.2040  -14.4590 C.2    89  HIS89       0.2291
    126  O         -6.6180    9.0800  -14.5080 O.2    89  HIS89      -0.2864
    127  CB        -3.7150   10.7070  -14.7550 C.3    89  HIS89       0.0771
    128  CG        -2.5440   10.5830  -15.6790 C.ar   89  HIS89       0.0820
    129  ND1       -2.0170   11.6520  -16.3590 N.ar   89  HIS89      -0.2267
    130  CD2       -1.7830    9.5100  -16.0040 C.ar   89  HIS89       0.1154
    131  CE1       -0.9750   11.2540  -17.0640 C.ar   89  HIS89       0.1986
    132  NE2       -0.8100    9.9570  -16.8680 N.ar   89  HIS89      -0.2212
    133  N         -8.7410    9.0220  -17.7950 N.3    93  LEU93      -0.1245
    134  CA        -8.3050    7.6260  -17.8950 C.3    93  LEU93       0.1561
    135  C         -8.6010    6.7580  -16.6830 C.2    93  LEU93       0.2260
    136  O         -8.5220    5.5270  -16.7550 O.2    93  LEU93      -0.2867
    137  CB        -6.8060    7.5430  -18.1830 C.3    93  LEU93       0.0270
    138  CG        -6.2630    7.6840  -19.6030 C.3    93  LEU93       0.0019
    139  CD1       -7.3780    7.9490  -20.6160 C.3    93  LEU93       0.0001
    140  CD2       -5.2020    8.7800  -19.6230 C.3    93  LEU93       0.0001
    141  N         -6.7840    6.1940  -13.9600 N.3    95  VAL95      -0.1245
    142  CA        -5.6240    5.3770  -13.5920 C.3    95  VAL95       0.1561
    143  C         -5.6410    5.0380  -12.0970 C.2    95  VAL95       0.2260
    144  O         -5.9570    5.8810  -11.2710 O.2    95  VAL95      -0.2867
    145  CB        -4.3100    6.0990  -13.9250 C.3    95  VAL95       0.0252
    146  CG1       -3.1330    5.2170  -13.6350 C.3    95  VAL95       0.0019
    147  CG2       -4.3000    6.5250  -15.3700 C.3    95  VAL95       0.0019
    148  N         -0.4970    2.6140   -9.2230 N.3    99  ASN99      -0.1225
    149  CA         0.4680    2.4630  -10.2990 C.3    99  ASN99       0.1785
    150  C          1.4900    3.5740  -10.3400 C.2    99  ASN99       0.2597
    151  O          2.5480    3.4160  -10.9240 O.2    99  ASN99      -0.2718
    152  CB        -0.2260    2.3410  -11.6610 C.3    99  ASN99       0.1169
    153  CG        -1.2040    1.1750  -11.7200 C.2    99  ASN99       0.2627
    154  OD1       -0.8770    0.0550  -11.3280 O.2    99  ASN99      -0.2716
    155  ND2       -2.4230    1.4460  -12.1700 N.am   99  ASN99      -0.0877
    156  N          1.1880    4.7060   -9.7260 N.am  100  PHE100     -0.1976
    157  CA         2.1470    5.8070   -9.7270 C.3   100  PHE100      0.1639
    158  C          3.4400    5.3470   -9.0700 C.2   100  PHE100      0.2290
    159  O          4.5310    5.7300   -9.4830 O.2   100  PHE100     -0.2864
    160  CB         1.5990    7.0300   -8.9830 C.3   100  PHE100      0.0560
    161  CG         0.3840    7.6550   -9.6300 C.ar  100  PHE100     -0.0200
    162  CD1        0.3190    7.8450  -11.0040 C.ar  100  PHE100     -0.0042
    163  CD2       -0.6930    8.0540   -8.8670 C.ar  100  PHE100     -0.0042
    164  CE1       -0.8110    8.4280  -11.6150 C.ar  100  PHE100     -0.0003
    165  CE2       -1.8090    8.6290   -9.4710 C.ar  100  PHE100     -0.0003
    166  CZ        -1.8700    8.8150  -10.8420 C.ar  100  PHE100     -0.0000
    167  N          5.6370    3.3200  -11.6400 N.3   103  LEU103     -0.1231
    168  CA         6.4120    4.1190  -12.5880 C.3   103  LEU103      0.1693
    169  C          7.5920    4.8070  -11.9080 C.2   103  LEU103      0.2591
    170  O          8.7130    4.7720  -12.4110 O.2   103  LEU103     -0.2718
    171  CB         5.5410    5.1500  -13.3100 C.3   103  LEU103      0.0284
    172  CG         6.2680    5.8330  -14.4770 C.3   103  LEU103      0.0019
    173  CD1        6.7920    4.8200  -15.4800 C.3   103  LEU103      0.0001
    174  CD2        5.3530    6.8060  -15.1520 C.3   103  LEU103      0.0001
    175  N          7.3320    5.3930  -10.7450 N.am  104  ALA104     -0.1980
    176  CA         8.3500    6.0810   -9.9600 C.3   104  ALA104      0.1597
    177  C          9.5530    5.1880   -9.7420 C.2   104  ALA104      0.2287
    178  O         10.6730    5.5870   -9.9820 O.2   104  ALA104     -0.2864
    179  CB         7.7770    6.4900   -8.6280 C.3   104  ALA104      0.0319
    180  N         11.5450    4.6110  -12.7610 N.3   107  ILE107     -0.1245
    181  CA        12.2560    5.8370  -13.1000 C.3   107  ILE107      0.1561
    182  C         13.5180    5.9280  -12.2090 C.2   107  ILE107      0.2260
    183  O         14.6300    6.0560  -12.7170 O.2   107  ILE107     -0.2867
    184  CB        11.3570    7.1080  -12.9070 C.3   107  ILE107      0.0252
    185  CG1       10.3120    7.2330  -14.0260 C.3   107  ILE107      0.0019
    186  CG2       12.2140    8.3760  -12.8680 C.3   107  ILE107      0.0019
    187  CD1        9.3830    8.4820  -13.8760 C.3   107  ILE107      0.0001
    188  N          8.9320   12.5130   -6.5240 N.3   131  LEU131     -0.1245
    189  CA         8.0640   11.6340   -7.2930 C.3   131  LEU131      0.1561
    190  C          6.7930   11.3390   -6.5270 C.2   131  LEU131      0.2260
    191  O          5.7310   11.2580   -7.1300 O.2   131  LEU131     -0.2867
    192  CB         8.7750   10.3370   -7.6600 C.3   131  LEU131      0.0270
    193  CG        10.0210   10.4430   -8.5440 C.3   131  LEU131      0.0019
    194  CD1       10.5490    9.0420   -8.8740 C.3   131  LEU131      0.0001
    195  CD2        9.7070   11.2160   -9.8260 C.3   131  LEU131      0.0001
    196  N          4.7280   14.3470   -6.8150 N.3   134  LEU134     -0.1231
    197  CA         4.1910   14.3930   -8.1720 C.3   134  LEU134      0.1693
    198  C          2.9020   13.5630   -8.2540 C.2   134  LEU134      0.2591
    199  O          1.8820   14.0690   -8.6980 O.2   134  LEU134     -0.2718
    200  CB         5.2100   13.8830   -9.1840 C.3   134  LEU134      0.0284
    201  CG         4.7610   14.0120  -10.6340 C.3   134  LEU134      0.0019
    202  CD1        5.8860   14.4910  -11.4880 C.3   134  LEU134      0.0001
    203  CD2        4.2480   12.6970  -11.1280 C.3   134  LEU134      0.0001
    204  N          2.9400   12.3140   -7.7900 N.am  135  ALA135     -0.1980
    205  CA         1.7600   11.4450   -7.7850 C.3   135  ALA135      0.1597
    206  C          0.6200   12.1080   -7.0220 C.2   135  ALA135      0.2287
    207  O         -0.5410   12.0020   -7.4040 O.2   135  ALA135     -0.2864
    208  CB         2.0920   10.1410   -7.1540 C.3   135  ALA135      0.0319
    209  N         -1.0230   14.6180   -9.2090 N.3   138  LEU138     -0.1245
    210  CA        -1.7810   13.9220  -10.2440 C.3   138  LEU138      0.1561
    211  C         -3.0260   13.2380   -9.6860 C.2   138  LEU138      0.2260
    212  O         -3.9530   12.9620  -10.4270 O.2   138  LEU138     -0.2867
    213  CB        -0.9000   12.8780  -10.9120 C.3   138  LEU138      0.0270
    214  CG        -0.2810   13.1760  -12.2750 C.3   138  LEU138      0.0019
    215  CD1        0.6080   14.3690  -12.2450 C.3   138  LEU138      0.0001
    216  CD2        0.5240   11.9700  -12.6850 C.3   138  LEU138      0.0001
@<TRIPOS>BOND
     1    42    41    2
     2    50    51    2
     3    50    49    1
     4    41    48   am
     5    41    40    1
     6    49    48    1
     7    49    52    1
     8    40    43    1
     9    40    39    1
    10    43    44    1
    11    54    53   ar
    12    54    56   ar
    13    52    53    1
    14    53    55   ar
    15    56    57   ar
    16    44    45    1
    17    55    57   ar
    18    55    58   ar
    19    57    59   ar
    20    62    63    1
    21    45    47   ar
    22    45    46   ar
    23    58    60   ar
    24    59    61   ar
    25    78    76    1
    26    31    30    2
    27    63    66    1
    28    63    64    1
    29    66    67    1
    30    60    61   ar
    31    68    67   ar
    32    68    70   ar
    33    30    29    1
    34    76    73    1
    35    76    77    1
    36    64    65    2
    37    67    69   ar
    38    72    73    1
    39    73    74    1
    40    70    71   ar
    41    29    32    1
    42    29    28    1
    43    32    33    1
    44    69    71   ar
    45    35    33   ar
    46    35    37   ar
    47    33    34   ar
    48    28    18   am
    49    74    75    2
    50    74    79   am
    51    19    18    2
    52    37    38   ar
    53    18    17    1
    54    79    80    1
    55   121   120    1
    56   139   138    1
    57    34    36   ar
    58   122   120    1
    59    38    36   ar
    60    17    16    1
    61    17    20    1
    62   140   138    1
    63   138   137    1
    64    80    81    1
    65    80    83    1
    66   120   119    1
    67    84    83    1
    68    84    86    1
    69    87    88    1
    70    81    82    2
    71    83    85    1
    72    20    21    1
    73   119   116    1
    74   114   112    1
    75    88    91    1
    76    88    89    1
    77   137   134    1
    78    12    11    2
    79   134   133    1
    80   134   135    1
    81   116   117    1
    82   116   115    1
    83    11    10    1
    84   118   117    2
    85    21    23   ar
    86    21    22   ar
    87   117   123   am
    88   112   113    1
    89   112   111    1
    90   131   132   ar
    91   131   129   ar
    92     1     2    1
    93    89    92   am
    94    89    90    2
    95   132   130   ar
    96    23    25   ar
    97     8     7    1
    98     3     2    1
    99     3     4    2
   100   136   135    2
   101    92    93    1
   102    22    24   ar
   103    14    13    1
   104   129   128   ar
   105   108   107    1
   106   108   111    1
   107   108   109    1
   108   123   124    1
   109     2     5    1
   110    10    13    1
   111    10     9    1
   112   130   128   ar
   113     5     6    1
   114    13    15    1
   115   128   127    1
   116   110   109    2
   117    25    26   ar
   118   173   172    1
   119   124   127    1
   120   124   125    1
   121   147   145    1
   122    93    94    1
   123    93    96    1
   124    94    95    2
   125     6     7    1
   126    24    26   ar
   127    98    96    1
   128   174   172    1
   129    96    97    1
   130    26    27    1
   131   126   125    2
   132   172   171    1
   133   185   187    1
   134   185   184    1
   135   141   142    1
   136   145   146    1
   137   145   142    1
   138   142   143    1
   139   105   104    1
   140   102   101    2
   141   171   168    1
   142   101   100    1
   143   181   184    1
   144   181   180    1
   145   181   182    1
   146   100    99    1
   147   100   103    1
   148   184   186    1
   149   183   182    2
   150   216   214    1
   151   168   169    1
   152   168   167    1
   153   170   169    2
   154   214   215    1
   155   214   213    1
   156   104   103    1
   157   104   106    1
   158   155   153   am
   159   143   144    2
   160   169   175   am
   161   153   152    1
   162   153   154    2
   163   152   149    1
   164   164   162   ar
   165   164   166   ar
   166   202   201    1
   167   203   201    1
   168   162   161   ar
   169   151   150    2
   170   213   210    1
   171   166   165   ar
   172   175   176    1
   173   201   200    1
   174   212   211    2
   175   150   149    1
   176   150   156   am
   177   149   148    1
   178   210   211    1
   179   210   209    1
   180   178   177    2
   181   176   177    1
   182   176   179    1
   183   195   193    1
   184   157   156    1
   185   157   158    1
   186   157   160    1
   187   161   160    1
   188   161   163   ar
   189   159   158    2
   190   165   163   ar
   191   200   197    1
   192   194   193    1
   193   199   198    2
   194   193   192    1
   195   198   197    1
   196   198   204   am
   197   197   196    1
   198   204   205    1
   199   205   208    1
   200   205   206    1
   201   192   189    1
   202   207   206    2
   203   189   190    1
   204   189   188    1
   205   191   190    2
