@<TRIPOS>MOLECULE
tmp/1spgB00.pdb
 230 218 0 0 0
SMALL
GASTEIGER

@<TRIPOS>ATOM
      1  N         17.7500    1.7140    2.9850 N.3    31  LEU31      -0.1245
      2  CA        16.4300    1.5390    3.5650 C.3    31  LEU31       0.1561
      3  C         16.2890    2.4710    4.7500 C.2    31  LEU31       0.2260
      4  O         15.3550    3.2750    4.8220 O.2    31  LEU31      -0.2867
      5  CB        16.2150    0.1040    4.0340 C.3    31  LEU31       0.0270
      6  CG        14.8100   -0.1260    4.5940 C.3    31  LEU31       0.0019
      7  CD1       13.8230   -0.2540    3.4700 C.3    31  LEU31       0.0001
      8  CD2       14.7830   -1.3740    5.4410 C.3    31  LEU31       0.0001
      9  N         11.9360    2.8790    9.2630 N.3    38  THR38      -0.1218
     10  CA        12.4060    1.4910    9.3680 C.3    38  THR38       0.1862
     11  C         13.4890    1.3220   10.4510 C.2    38  THR38       0.2287
     12  O         13.8410    0.1950   10.8560 O.2    38  THR38      -0.2866
     13  CB        12.9640    1.0080    8.0370 C.3    38  THR38       0.1770
     14  OG1       13.9570    1.9310    7.5880 O.3    38  THR38      -0.2211
     15  CG2       11.8570    0.9060    6.9960 C.3    38  THR38       0.0375
     16  N         13.0550   -0.6360   13.9540 N.3    41  HIS41      -0.1226
     17  CA        13.2170   -2.0740   14.0560 C.3    41  HIS41       0.1752
     18  C         14.6220   -2.4930   14.3820 C.2    41  HIS41       0.2596
     19  O         14.8310   -3.6180   14.8190 O.2    41  HIS41      -0.2718
     20  CB        12.7870   -2.7560   12.7470 C.3    41  HIS41       0.0759
     21  CG        11.3330   -2.6190   12.4540 C.ar   41  HIS41       0.0818
     22  ND1       10.3640   -2.9620   13.3730 N.ar   41  HIS41      -0.2268
     23  CD2       10.6780   -2.1270   11.3820 C.ar   41  HIS41       0.1154
     24  CE1        9.1730   -2.6800   12.8760 C.ar   41  HIS41       0.1986
     25  NE2        9.3370   -2.1730   11.6690 N.ar   41  HIS41      -0.2212
     26  N         15.5860   -1.6200   14.1250 N.am   42  PHE42      -0.1976
     27  CA        16.9780   -1.9610   14.3610 C.3    42  PHE42       0.1639
     28  C         17.5790   -1.1590   15.5160 C.2    42  PHE42       0.2290
     29  O         18.7370   -0.7280   15.4560 O.2    42  PHE42      -0.2864
     30  CB        17.7770   -1.7010   13.0830 C.3    42  PHE42       0.0560
     31  CG        17.2440   -2.4060   11.8730 C.ar   42  PHE42      -0.0200
     32  CD1       17.2660   -3.7840   11.7820 C.ar   42  PHE42      -0.0042
     33  CD2       16.7840   -1.6860   10.7850 C.ar   42  PHE42      -0.0042
     34  CE1       16.8510   -4.4120   10.6230 C.ar   42  PHE42      -0.0003
     35  CE2       16.3690   -2.3470    9.6230 C.ar   42  PHE42      -0.0003
     36  CZ        16.4050   -3.7230    9.5420 C.ar   42  PHE42      -0.0000
     37  N         18.7530   -2.0860   18.1180 N.3    44  GLY44      -0.1210
     38  CA        19.9250   -2.7600   18.6480 C.3    44  GLY44       0.1956
     39  C         21.1990   -2.5770   17.8230 C.2    44  GLY44       0.2611
     40  O         22.1960   -3.2550   18.0820 O.2    44  GLY44      -0.2717
     41  N         21.1950   -1.6650   16.8510 N.am   45  PHE45      -0.1976
     42  CA        22.3740   -1.4470   16.0110 C.3    45  PHE45       0.1639
     43  C         23.2160   -0.3190   16.5220 C.2    45  PHE45       0.2290
     44  O         24.2820   -0.0460   15.9890 O.2    45  PHE45      -0.2864
     45  CB        21.9830   -1.1300   14.5590 C.3    45  PHE45       0.0560
     46  CG        21.5740   -2.3380   13.7430 C.ar   45  PHE45      -0.0200
     47  CD1       21.4450   -3.6010   14.3260 C.ar   45  PHE45      -0.0042
     48  CD2       21.3300   -2.2050   12.3840 C.ar   45  PHE45      -0.0042
     49  CE1       21.0690   -4.7050   13.5720 C.ar   45  PHE45      -0.0003
     50  CE2       20.9510   -3.3080   11.6140 C.ar   45  PHE45      -0.0003
     51  CZ        20.8300   -4.5470   12.2160 C.ar   45  PHE45      -0.0000
     52  N         24.4650   -6.7020    9.1870 N.3    63  HIS63      -0.1241
     53  CA        23.1110   -7.1470    8.9600 C.3    63  HIS63       0.1621
     54  C         22.7020   -7.1170    7.5000 C.2    63  HIS63       0.2264
     55  O         21.9020   -7.9470    7.0670 O.2    63  HIS63      -0.2867
     56  CB        22.1190   -6.3900    9.8170 C.3    63  HIS63       0.0745
     57  CG        20.7940   -7.0730    9.9210 C.ar   63  HIS63       0.0817
     58  ND1       20.6690   -8.3720   10.3730 N.ar   63  HIS63      -0.2268
     59  CD2       19.5430   -6.6560    9.6230 C.ar   63  HIS63       0.1154
     60  CE1       19.3940   -8.7190   10.3500 C.ar   63  HIS63       0.1986
     61  NE2       18.6920   -7.6960    9.9000 N.ar   63  HIS63      -0.2212
     62  N         23.5180  -10.3460    6.1560 N.3    66  THR66      -0.1203
     63  CA        22.6200  -11.4020    6.6050 C.3    66  THR66       0.1994
     64  C         21.3650  -11.4160    5.7160 C.2    66  THR66       0.2617
     65  O         20.8060  -12.4750    5.4330 O.2    66  THR66      -0.2717
     66  CB        22.2150  -11.1590    8.0470 C.3    66  THR66       0.1784
     67  OG1       23.3900  -10.9630    8.8260 O.3    66  THR66      -0.2211
     68  CG2       21.4740  -12.3170    8.6050 C.3    66  THR66       0.0376
     69  N         20.9380  -10.2410    5.2600 N.am   67  VAL67      -0.1979
     70  CA        19.7710  -10.1360    4.3910 C.3    67  VAL67       0.1595
     71  C         20.0390  -10.7790    3.0450 C.2    67  VAL67       0.2287
     72  O         19.1740  -11.4630    2.5110 O.2    67  VAL67      -0.2864
     73  CB        19.3400   -8.6840    4.1940 C.3    67  VAL67       0.0276
     74  CG1       18.3120   -8.5790    3.0720 C.3    67  VAL67       0.0022
     75  CG2       18.7710   -8.1640    5.4780 C.3    67  VAL67       0.0022
     76  N         19.9380  -14.3680    3.3460 N.3    70  GLY70      -0.1210
     77  CA        18.5460  -14.7870    3.4190 C.3    70  GLY70       0.1956
     78  C         17.9330  -14.9170    2.0310 C.2    70  GLY70       0.2611
     79  O         17.0470  -15.7490    1.8020 O.2    70  GLY70      -0.2717
     80  N         18.4050  -14.0840    1.1040 N.am   71  LEU71      -0.1979
     81  CA        17.9390  -14.0990   -0.2810 C.3    71  LEU71       0.1596
     82  C         18.5750  -15.2580   -1.0220 C.2    71  LEU71       0.2287
     83  O         17.9880  -15.8280   -1.9400 O.2    71  LEU71      -0.2864
     84  CB        18.2890  -12.7850   -0.9750 C.3    71  LEU71       0.0297
     85  CG        17.2100  -11.6970   -0.9460 C.3    71  LEU71       0.0022
     86  CD1       17.7660  -10.4010   -1.4850 C.3    71  LEU71       0.0001
     87  CD2       16.0160  -12.1310   -1.7680 C.3    71  LEU71       0.0001
     88  N         19.1310  -18.0360    0.2450 N.3    73  ARG73      -0.1245
     89  CA        18.3590  -19.2010    0.6600 C.3    73  ARG73       0.1563
     90  C         17.2150  -19.4890   -0.3280 C.2    73  ARG73       0.2260
     91  O         16.8640  -20.6430   -0.5640 O.2    73  ARG73      -0.2867
     92  CB        17.8010  -18.9640    2.0620 C.3    73  ARG73       0.0307
     93  CG        17.7570  -20.1990    2.9380 C.3    73  ARG73       0.0489
     94  CD        17.2200  -19.8540    4.3220 C.3    73  ARG73       0.2205
     95  NE        17.8920  -18.6500    4.7900 N.pl3  73  ARG73      -0.0865
     96  CZ        18.9650  -18.6460    5.5740 C.cat  73  ARG73       0.5346
     97  NH1       19.4350  -19.7910    6.0750 N.pl3  73  ARG73       0.1354
     98  NH2       19.5190  -17.4840    5.9210 N.pl3  73  ARG73       0.1354
     99  N         11.0550  -20.2480    3.6900 N.3    85  TYR85      -0.1241
    100  CA        10.9950  -18.9570    4.3520 C.3    85  TYR85       0.1605
    101  C         10.0460  -19.0930    5.5380 C.2    85  TYR85       0.2264
    102  O          9.5890  -18.0980    6.1020 O.2    85  TYR85      -0.2867
    103  CB        10.4830  -17.8870    3.3970 C.3    85  TYR85       0.0534
    104  CG        11.5390  -17.0470    2.7250 C.ar   85  TYR85      -0.0201
    105  CD1       12.7990  -17.5500    2.4250 C.ar   85  TYR85      -0.0009
    106  CD2       11.2740  -15.7280    2.3930 C.ar   85  TYR85      -0.0009
    107  CE1       13.7670  -16.7440    1.8090 C.ar   85  TYR85       0.0417
    108  CE2       12.2320  -14.9270    1.7870 C.ar   85  TYR85       0.0417
    109  CZ        13.4680  -15.4370    1.4990 C.ar   85  TYR85       0.1957
    110  OH        14.3900  -14.6080    0.9160 O.3    85  TYR85      -0.2866
    111  N         10.5840  -19.6960    8.5960 N.3    87  GLN87      -0.1231
    112  CA        11.0590  -18.9870    9.7710 C.3    87  GLN87       0.1698
    113  C         11.0760  -17.4890    9.6450 C.2    87  GLN87       0.2592
    114  O         10.6950  -16.7970   10.5730 O.2    87  GLN87      -0.2718
    115  CB        12.4370  -19.4910   10.1850 C.3    87  GLN87       0.0381
    116  CG        12.3520  -20.6640   11.1300 C.3    87  GLN87       0.0905
    117  CD        11.4790  -21.8460   10.7650 C.2    87  GLN87       0.2608
    118  OE1       11.6670  -22.4700    9.7010 O.2    87  GLN87      -0.2717
    119  NE2       10.4990  -22.1530   11.6230 N.am   87  GLN87      -0.0878
    120  N         11.5500  -16.9980    8.5060 N.am   88  LEU88      -0.1980
    121  CA        11.6380  -15.5640    8.2400 C.3    88  LEU88       0.1596
    122  C         10.2610  -14.9200    8.2110 C.2    88  LEU88       0.2287
    123  O         10.1190  -13.7470    8.5780 O.2    88  LEU88      -0.2864
    124  CB        12.3780  -15.2990    6.9310 C.3    88  LEU88       0.0297
    125  CG        13.8220  -15.7930    6.8910 C.3    88  LEU88       0.0022
    126  CD1       14.3950  -15.5590    5.4980 C.3    88  LEU88       0.0001
    127  CD2       14.6420  -15.0600    7.9470 C.3    88  LEU88       0.0001
    128  N          9.2290  -14.6380   12.0680 N.3    91  LYS91      -0.1231
    129  CA        10.0220  -13.6030   12.7170 C.3    91  LYS91       0.1693
    130  C          9.4820  -12.2150   12.3420 C.2    91  LYS91       0.2592
    131  O          8.8100  -11.5700   13.1430 O.2    91  LYS91      -0.2718
    132  CB        11.5010  -13.7410   12.3290 C.3    91  LYS91       0.0285
    133  CG        12.4060  -12.5450   12.7330 C.3    91  LYS91       0.0035
    134  CD        13.2140  -12.7770   14.0120 C.3    91  LYS91       0.0206
    135  CE        12.3040  -13.1250   15.1780 C.3    91  LYS91       0.1093
    136  NZ        13.0290  -13.7640   16.3270 N.3    91  LYS91      -0.1314
    137  N          9.6890  -11.8150   11.0920 N.am   92  HIS92      -0.1976
    138  CA         9.2470  -10.5140   10.5820 C.3    92  HIS92       0.1656
    139  C          7.7610  -10.1520   10.7100 C.2    92  HIS92       0.2291
    140  O          7.4250   -9.0040   11.0050 O.2    92  HIS92      -0.2864
    141  CB         9.6240  -10.3810    9.1060 C.3    92  HIS92       0.0771
    142  CG        11.0920  -10.3840    8.8490 C.ar   92  HIS92       0.0820
    143  ND1       11.8480  -11.5390    8.8510 N.ar   92  HIS92      -0.2267
    144  CD2       11.9380   -9.3810    8.5080 C.ar   92  HIS92       0.1154
    145  CE1       13.0880  -11.2430    8.5110 C.ar   92  HIS92       0.1986
    146  NE2       13.1710   -9.9500    8.2990 N.ar   92  HIS92      -0.2212
    147  N          8.2430   -9.5650   15.0530 N.3    96  ILE96      -0.1245
    148  CA         8.6670   -8.1730   14.8920 C.3    96  ILE96       0.1561
    149  C          7.5410   -7.2630   14.3810 C.2    96  ILE96       0.2260
    150  O          7.4460   -6.1090   14.7690 O.2    96  ILE96      -0.2867
    151  CB         9.8210   -8.0930   13.8970 C.3    96  ILE96       0.0252
    152  CG1       10.9330   -9.0370   14.3050 C.3    96  ILE96       0.0019
    153  CG2       10.3850   -6.7130   13.8290 C.3    96  ILE96       0.0019
    154  CD1       12.1040   -8.9780   13.3460 C.3    96  ILE96       0.0001
    155  N          6.8270   -6.1900   10.9670 N.3    98  VAL98      -0.1245
    156  CA         7.2730   -5.2070    9.9740 C.3    98  VAL98       0.1561
    157  C          6.0980   -5.0690    9.0070 C.2    98  VAL98       0.2260
    158  O          5.6730   -6.0590    8.4390 O.2    98  VAL98      -0.2867
    159  CB         8.4630   -5.7490    9.1280 C.3    98  VAL98       0.0252
    160  CG1        8.8180   -4.7810    8.0310 C.3    98  VAL98       0.0019
    161  CG2        9.6560   -6.0260    9.9870 C.3    98  VAL98       0.0019
    162  N          7.0510   -2.7840    3.6800 N.3   102  ASN102     -0.1225
    163  CA         8.4690   -2.4840    3.8520 C.3   102  ASN102      0.1785
    164  C          9.3270   -3.4990    3.0960 C.2   102  ASN102      0.2597
    165  O         10.4080   -3.1670    2.6150 O.2   102  ASN102     -0.2718
    166  CB         8.8470   -2.4430    5.3300 C.3   102  ASN102      0.1169
    167  CG         8.3600   -1.1880    6.0130 C.2   102  ASN102      0.2627
    168  OD1        8.7110   -0.0750    5.6270 O.2   102  ASN102     -0.2716
    169  ND2        7.5190   -1.3570    7.0070 N.am  102  ASN102     -0.0877
    170  N          8.8070   -4.7200    2.9540 N.am  103  PHE103     -0.1976
    171  CA         9.4880   -5.8070    2.2340 C.3   103  PHE103      0.1639
    172  C          9.6840   -5.3950    0.7870 C.2   103  PHE103      0.2290
    173  O         10.7100   -5.6930    0.1630 O.2   103  PHE103     -0.2864
    174  CB         8.6380   -7.0750    2.2460 C.3   103  PHE103      0.0560
    175  CG         8.3680   -7.6270    3.6180 C.ar  103  PHE103     -0.0200
    176  CD1        9.3340   -7.5630    4.6230 C.ar  103  PHE103     -0.0042
    177  CD2        7.1700   -8.2710    3.8790 C.ar  103  PHE103     -0.0042
    178  CE1        9.1170   -8.1370    5.8730 C.ar  103  PHE103     -0.0003
    179  CE2        6.9400   -8.8390    5.0970 C.ar  103  PHE103     -0.0003
    180  CZ         7.9120   -8.7760    6.0950 C.ar  103  PHE103     -0.0000
    181  N         12.4110   -2.5870    0.6280 N.3   106  LEU106     -0.1231
    182  CA        13.7700   -3.1050    0.5820 C.3   106  LEU106      0.1693
    183  C         13.9870   -3.8690   -0.7240 C.2   106  LEU106      0.2592
    184  O         15.0510   -3.7740   -1.3210 O.2   106  LEU106     -0.2718
    185  CB        14.0990   -3.9500    1.8080 C.3   106  LEU106      0.0284
    186  CG        15.5910   -4.2750    1.9750 C.3   106  LEU106      0.0019
    187  CD1       16.4710   -3.0720    1.5930 C.3   106  LEU106      0.0001
    188  CD2       15.8670   -4.7050    3.3970 C.3   106  LEU106      0.0001
    189  N         12.9650   -4.5660   -1.2090 N.am  107  GLY107     -0.1957
    190  CA        13.0980   -5.2720   -2.4780 C.3   107  GLY107      0.1869
    191  C         13.4540   -4.2880   -3.5910 C.2   107  GLY107      0.2309
    192  O         14.3360   -4.5360   -4.4150 O.2   107  GLY107     -0.2863
    193  N         17.1720   -2.8730   -3.1850 N.3   110  ILE110     -0.1245
    194  CA        18.1870   -3.8180   -3.6210 C.3   110  ILE110      0.1561
    195  C         18.2620   -3.8010   -5.1420 C.2   110  ILE110      0.2260
    196  O         19.3530   -3.7690   -5.7040 O.2   110  ILE110     -0.2867
    197  CB        17.8520   -5.2550   -3.1980 C.3   110  ILE110      0.0252
    198  CG1       17.7080   -5.3370   -1.6810 C.3   110  ILE110      0.0019
    199  CG2       18.9210   -6.2110   -3.7050 C.3   110  ILE110      0.0019
    200  CD1       17.0300   -6.5890   -1.2170 C.3   110  ILE110      0.0001
    201  N         11.6580  -11.3330   -6.5890 N.3   135  LEU135     -0.1245
    202  CA        11.4060  -10.5600   -5.3600 C.3   135  LEU135      0.1561
    203  C          9.9110  -10.5520   -4.9620 C.2   135  LEU135      0.2260
    204  O          9.5830  -10.6210   -3.7820 O.2   135  LEU135     -0.2867
    205  CB        11.9140   -9.1170   -5.4740 C.3   135  LEU135      0.0270
    206  CG        13.4080   -8.8240   -5.3790 C.3   135  LEU135      0.0019
    207  CD1       14.1250   -9.9120   -4.5840 C.3   135  LEU135      0.0001
    208  CD2       13.9740   -8.7230   -6.7440 C.3   135  LEU135      0.0001
    209  N          9.4640  -13.6030   -2.9500 N.3   138  VAL138     -0.1231
    210  CA        10.1300  -13.4590   -1.6510 C.3   138  VAL138      0.1692
    211  C          9.2340  -12.6010   -0.7600 C.2   138  VAL138      0.2591
    212  O          8.8250  -13.0210    0.3140 O.2   138  VAL138     -0.2718
    213  CB        11.5240  -12.7560   -1.7750 C.3   138  VAL138      0.0266
    214  CG1       11.9940  -12.2810   -0.4190 C.3   138  VAL138      0.0020
    215  CG2       12.5600  -13.7100   -2.3370 C.3   138  VAL138      0.0020
    216  N          8.8780  -11.4210   -1.2480 N.am  139  VAL139     -0.1980
    217  CA         8.0370  -10.5080   -0.4950 C.3   139  VAL139      0.1595
    218  C          6.7840  -11.1970    0.0300 C.2   139  VAL139      0.2287
    219  O          6.4160  -11.0290    1.1870 O.2   139  VAL139     -0.2864
    220  CB         7.5900   -9.3140   -1.3600 C.3   139  VAL139      0.0276
    221  CG1        6.5350   -8.5200   -0.6250 C.3   139  VAL139      0.0022
    222  CG2        8.7740   -8.4310   -1.7350 C.3   139  VAL139      0.0022
    223  N          7.5140  -13.7030    2.8050 N.3   142  LEU142     -0.1245
    224  CA         7.9700  -13.0850    4.0480 C.3   142  LEU142      0.1561
    225  C          6.8560  -12.6200    4.9580 C.2   142  LEU142      0.2260
    226  O          7.0180  -12.5390    6.1800 O.2   142  LEU142     -0.2867
    227  CB         8.8560  -11.8890    3.7440 C.3   142  LEU142      0.0270
    228  CG        10.3550  -12.1160    3.6370 C.3   142  LEU142      0.0019
    229  CD1       10.9630  -10.9920    2.8110 C.3   142  LEU142      0.0001
    230  CD2       10.9710  -12.1800    5.0100 C.3   142  LEU142      0.0001
@<TRIPOS>BOND
     1   208   206    1
     2   201   202    1
     3   196   195    2
     4   205   206    1
     5   205   202    1
     6   206   207    1
     7   202   203    1
     8   195   194    1
     9   203   204    2
    10   192   191    2
    11   199   197    1
    12   194   197    1
    13   194   193    1
    14   191   190    1
    15   197   198    1
    16   209   210    1
    17   190   189    1
    18   215   213    1
    19    83    82    2
    20   213   210    1
    21   213   214    1
    22    87    85    1
    23   222   220    1
    24   198   200    1
    25   210   211    1
    26    86    85    1
    27   220   221    1
    28   220   217    1
    29   184   183    2
    30   216   211   am
    31   216   217    1
    32   189   183   am
    33    82    81    1
    34    84    85    1
    35    84    81    1
    36   211   212    2
    37   183   182    1
    38    91    90    2
    39   217   218    1
    40    90    89    1
    41    81    80    1
    42   218   219    2
    43   173   172    2
    44    88    89    1
    45   182   181    1
    46   182   185    1
    47    89    92    1
    48   172   171    1
    49   110   109    1
    50    80    78   am
    51   109   108   ar
    52   109   107   ar
    53   187   186    1
    54   108   106   ar
    55    79    78    2
    56   185   186    1
    57   107   105   ar
    58   186   188    1
    59    78    77    1
    60    92    93    1
    61   171   174    1
    62   171   170    1
    63   174   175    1
    64   106   104   ar
    65   105   104   ar
    66    72    71    2
    67   165   164    2
    68   104   103    1
    69   223   224    1
    70   229   228    1
    71    93    94    1
    72   170   164   am
    73     1     2    1
    74    71    70    1
    75    74    73    1
    76   164   163    1
    77    76    77    1
    78   103   100    1
    79     7     6    1
    80     2     5    1
    81     2     3    1
    82   175   177   ar
    83   175   176   ar
    84   228   227    1
    85   228   230    1
    86   162   163    1
    87    99   100    1
    88   227   224    1
    89   163   166    1
    90   177   179   ar
    91     5     6    1
    92   224   225    1
    93    73    70    1
    94    73    75    1
    95    94    95    1
    96   100   101    1
    97    70    69    1
    98     6     8    1
    99   176   178   ar
   100     3     4    2
   101    95    96    2
   102   225   226    2
   103   179   180   ar
   104    69    64   am
   105   166   167    1
   106    65    64    2
   107   126   125    1
   108   101   102    2
   109    96    98    1
   110    96    97    1
   111   168   167    2
   112    64    63    1
   113   178   180   ar
   114   167   169   am
   115    62    63    1
   116    63    66    1
   117   125   124    1
   118   125   127    1
   119   124   121    1
   120    15    13    1
   121    55    54    2
   122    54    53    1
   123    14    13    1
   124   160   159    1
   125    13    10    1
   126    66    68    1
   127    66    67    1
   128   122   121    1
   129   122   123    2
   130   121   120    1
   131   146   144   ar
   132   146   145   ar
   133   158   157    2
   134   120   113   am
   135   144   142   ar
   136   145   143   ar
   137   111   112    1
   138   142   143   ar
   139   142   141    1
   140    53    52    1
   141    53    56    1
   142   157   156    1
   143   141   138    1
   144   159   156    1
   145   159   161    1
   146     9    10    1
   147    10    11    1
   148    36    35   ar
   149    36    34   ar
   150    35    33   ar
   151    59    61   ar
   152    59    57   ar
   153   113   112    1
   154   113   114    2
   155   118   117    2
   156   112   115    1
   157    56    57    1
   158    61    60   ar
   159    57    58   ar
   160   156   155    1
   161   115   116    1
   162    60    58   ar
   163    11    12    2
   164   138   139    1
   165   138   137    1
   166    34    32   ar
   167   139   140    2
   168   117   116    1
   169   117   119   am
   170    33    31   ar
   171   137   130   am
   172    23    25   ar
   173    23    21   ar
   174    50    51   ar
   175    50    48   ar
   176    25    24   ar
   177    32    31   ar
   178    31    30    1
   179   128   129    1
   180    51    49   ar
   181   132   129    1
   182   132   133    1
   183   130   129    1
   184   130   131    2
   185    48    46   ar
   186    21    20    1
   187    21    22   ar
   188   133   134    1
   189    20    17    1
   190    24    22   ar
   191    30    27    1
   192   154   152    1
   193    49    47   ar
   194    46    47   ar
   195    46    45    1
   196   153   151    1
   197   151   152    1
   198   151   148    1
   199    16    17    1
   200   134   135    1
   201    17    18    1
   202    26    27    1
   203    26    18   am
   204    27    28    1
   205   149   150    2
   206   149   148    1
   207    18    19    2
   208    45    42    1
   209   148   147    1
   210   135   136    1
   211    29    28    2
   212    44    43    2
   213    42    43    1
   214    42    41    1
   215    41    39   am
   216    39    40    2
   217    39    38    1
   218    37    38    1
