@<TRIPOS>MOLECULE
tmp/1spsC00.pdb
 154 148 0 0 0
SMALL
GASTEIGER

@<TRIPOS>ATOM
      1  N         19.9950   41.9310   39.0970 N.3    11  ARG11      -0.1245
      2  CA        21.3900   42.3340   39.2180 C.3    11  ARG11       0.1563
      3  C         21.5630   43.8340   39.4300 C.2    11  ARG11       0.2260
      4  O         22.3740   44.1820   40.2800 O.2    11  ARG11      -0.2867
      5  CB        22.1200   41.8330   37.9660 C.3    11  ARG11       0.0307
      6  CG        23.2240   42.6790   37.3820 C.3    11  ARG11       0.0489
      7  CD        24.6350   42.1570   37.4540 C.3    11  ARG11       0.2205
      8  NE        24.8380   40.8160   36.9350 N.pl3  11  ARG11      -0.0865
      9  CZ        25.9640   40.4470   36.3040 C.cat  11  ARG11       0.5346
     10  NH1       26.9800   41.2780   36.0640 N.pl3  11  ARG11       0.1354
     11  NH2       26.1500   39.1650   36.0240 N.pl3  11  ARG11       0.1354
     12  N         21.4050   35.8590   46.0590 N.3    31  ARG31      -0.1245
     13  CA        20.1470   35.9800   45.3500 C.3    31  ARG31       0.1563
     14  C         20.0150   34.8770   44.2870 C.2    31  ARG31       0.2260
     15  O         20.9610   34.1030   44.1010 O.2    31  ARG31      -0.2867
     16  CB        20.1010   37.3690   44.7180 C.3    31  ARG31       0.0307
     17  CG        21.2400   37.6340   43.7150 C.3    31  ARG31       0.0489
     18  CD        21.1940   39.0640   43.1940 C.3    31  ARG31       0.2205
     19  NE        22.2550   39.3300   42.2430 N.pl3  31  ARG31      -0.0865
     20  CZ        22.2190   38.8390   41.0070 C.cat  31  ARG31       0.5346
     21  NH1       21.2160   38.0800   40.5820 N.pl3  31  ARG31       0.1354
     22  NH2       23.1930   39.1240   40.1560 N.pl3  31  ARG31       0.1354
     23  N         19.6290   33.5280   40.1970 N.3    33  SER33      -0.1202
     24  CA        20.2300   34.0830   38.9920 C.3    33  SER33       0.2020
     25  C         19.2260   34.3360   37.8440 C.2    33  SER33       0.2619
     26  O         18.3750   33.4990   37.5090 O.2    33  SER33      -0.2717
     27  CB        21.3210   33.1460   38.5420 C.3    33  SER33       0.2103
     28  OG        22.0010   33.6610   37.4090 O.3    33  SER33      -0.2182
     29  N         19.2790   35.5440   37.2580 N.am   34  GLU34      -0.1965
     30  CA        18.4790   35.8730   36.0960 C.3    34  GLU34       0.1733
     31  C         18.9930   35.1630   34.8620 C.2    34  GLU34       0.2617
     32  O         18.2760   34.9590   33.8980 O.2    34  GLU34      -0.2715
     33  CB        18.5160   37.3420   35.8200 C.3    34  GLU34       0.0429
     34  CG        17.8890   38.1610   36.9240 C.3    34  GLU34       0.1163
     35  CD        17.5100   39.5840   36.5100 C.2    34  GLU34       0.3649
     36  OE1       18.3580   40.4770   36.6080 O.co2  34  GLU34      -0.2457
     37  OE2       16.3570   39.7860   36.1120 O.co2  34  GLU34      -0.2457
     38  N         20.2410   34.7450   34.8650 N.am   35  THR35      -0.1951
     39  CA        20.8270   34.0810   33.7240 C.3    35  THR35       0.1897
     40  C         20.6850   32.5510   33.8520 C.2    35  THR35       0.2313
     41  O         20.7620   31.8300   32.8480 O.2    35  THR35      -0.2863
     42  CB        22.3060   34.6330   33.6720 C.3    35  THR35       0.1794
     43  OG1       22.1210   36.0110   33.3600 O.3    35  THR35      -0.2208
     44  CG2       23.2580   34.0640   32.6130 C.3    35  THR35       0.0378
     45  N         23.5200   33.4380   42.8960 N.3    41  CYS41      -0.1235
     46  CA        24.5570   34.4130   42.6940 C.3    41  CYS41       0.1677
     47  C         24.8270   35.1390   43.9850 C.2    41  CYS41       0.2270
     48  O         23.9110   35.5970   44.6640 O.2    41  CYS41      -0.2867
     49  CB        24.1590   35.4320   41.6330 C.3    41  CYS41       0.0956
     50  SG        25.5450   36.5860   41.5270 S.3    41  CYS41      -0.0801
     51  N         31.2990   42.6220   42.7650 N.3    56  LYS56      -0.1231
     52  CA        31.5890   41.3980   42.0250 C.3    56  LYS56       0.1693
     53  C         30.4410   40.4300   42.2220 C.2    56  LYS56       0.2592
     54  O         29.9220   40.3080   43.3240 O.2    56  LYS56      -0.2718
     55  CB        32.8580   40.7460   42.5180 C.3    56  LYS56       0.0285
     56  CG        34.1170   41.3050   41.8970 C.3    56  LYS56       0.0035
     57  CD        34.6270   42.4650   42.7030 C.3    56  LYS56       0.0206
     58  CE        36.0620   42.7950   42.3440 C.3    56  LYS56       0.1093
     59  NZ        36.1780   43.0540   40.9290 N.3    56  LYS56      -0.1314
     60  N         30.0410   39.7540   41.1490 N.am   57  HIS57      -0.1962
     61  CA        28.9120   38.8430   41.1700 C.3    57  HIS57       0.1787
     62  C         29.4650   37.4880   40.7820 C.2    57  HIS57       0.2620
     63  O         29.9550   37.2840   39.6840 O.2    57  HIS57      -0.2715
     64  CB        27.8090   39.2300   40.1420 C.3    57  HIS57       0.0785
     65  CG        27.0510   40.5240   40.4030 C.ar   57  HIS57       0.0821
     66  ND1       26.1100   40.7640   41.3120 N.ar   57  HIS57      -0.2267
     67  CD2       27.2540   41.6940   39.7180 C.ar   57  HIS57       0.1154
     68  CE1       25.7330   42.0190   41.2290 C.ar   57  HIS57       0.1986
     69  NE2       26.4360   42.5660   40.2570 N.ar   57  HIS57      -0.2212
     70  N         29.4010   36.5310   41.6880 N.am   58  TYR58      -0.1960
     71  CA        29.9150   35.1950   41.4620 C.3    58  TYR58       0.1771
     72  C         28.7330   34.2590   41.2780 C.2    58  TYR58       0.2619
     73  O         27.7830   34.3270   42.0670 O.2    58  TYR58      -0.2715
     74  CB        30.7220   34.7210   42.6670 C.3    58  TYR58       0.0574
     75  CG        31.9310   35.5540   43.0210 C.ar   58  TYR58      -0.0198
     76  CD1       31.7900   36.6610   43.8420 C.ar   58  TYR58      -0.0009
     77  CD2       33.1500   35.1740   42.5050 C.ar   58  TYR58      -0.0009
     78  CE1       32.9020   37.4030   44.1530 C.ar   58  TYR58       0.0417
     79  CE2       34.2600   35.9190   42.8200 C.ar   58  TYR58       0.0417
     80  CZ        34.1220   37.0190   43.6340 C.ar   58  TYR58       0.1957
     81  OH        35.2490   37.7530   43.9190 O.3    58  TYR58      -0.2866
     82  N         28.7840   33.3410   40.3150 N.am   59  LYS59      -0.1977
     83  CA        27.6850   32.4250   40.1660 C.3    59  LYS59       0.1596
     84  C         27.9760   31.1970   41.0010 C.2    59  LYS59       0.2287
     85  O         29.0220   30.5720   40.8570 O.2    59  LYS59      -0.2864
     86  CB        27.5350   32.0600   38.7040 C.3    59  LYS59       0.0298
     87  CG        26.2780   31.2740   38.3110 C.3    59  LYS59       0.0038
     88  CD        26.3280   30.8640   36.8270 C.3    59  LYS59       0.0206
     89  CE        26.0880   32.0290   35.8630 C.3    59  LYS59       0.1093
     90  NZ        24.7750   32.6370   36.0820 N.3    59  LYS59      -0.1314
     91  N         31.2250   27.6130   43.9940 N.3    70  ILE70      -0.1231
     92  CA        31.5810   28.7230   43.1360 C.3    70  ILE70       0.1692
     93  C         32.7800   28.2020   42.3390 C.2    70  ILE70       0.2589
     94  O         32.7500   28.3680   41.1140 O.2    70  ILE70      -0.2718
     95  CB        31.9570   29.9740   43.9480 C.3    70  ILE70       0.0266
     96  CG1       30.7720   30.6200   44.6010 C.3    70  ILE70       0.0019
     97  CG2       32.4210   31.0260   42.9960 C.3    70  ILE70       0.0020
     98  CD1       31.1870   31.8360   45.4470 C.3    70  ILE70       0.0001
     99  N         33.7720   27.5040   42.9240 N.am   71  THR71      -0.2006
    100  CA        34.8880   27.0590   42.1040 C.3    71  THR71       0.1584
    101  C         34.9720   25.5630   41.7440 C.3    71  THR71       0.2062
    102  O         35.4740   25.3250   40.6400 O.3    71  THR71      -0.2184
    103  CB        36.2850   27.5990   42.7670 C.3    71  THR71       0.1745
    104  OG1       37.2230   26.5600   42.6340 O.3    71  THR71      -0.2212
    105  CG2       36.2650   27.9580   44.2400 C.3    71  THR71       0.0374
    106  N         36.6120   23.1620   43.4310 N.3    73  ARG73      -0.1245
    107  CA        37.6050   22.7390   44.3900 C.3    73  ARG73       0.1563
    108  C         36.8460   22.6920   45.7010 C.2    73  ARG73       0.2260
    109  O         36.9000   21.6440   46.3070 O.2    73  ARG73      -0.2867
    110  CB        38.7570   23.7400   44.5650 C.3    73  ARG73       0.0307
    111  CG        39.3160   24.4090   43.3120 C.3    73  ARG73       0.0489
    112  CD        40.1430   25.6440   43.6580 C.3    73  ARG73       0.2205
    113  NE        39.5920   26.3720   44.7990 N.pl3  73  ARG73      -0.0865
    114  CZ        40.1930   27.4270   45.3470 C.cat  73  ARG73       0.5346
    115  NH1       41.3360   27.9220   44.8850 N.pl3  73  ARG73       0.1354
    116  NH2       39.6780   27.9440   46.4500 N.pl3  73  ARG73       0.1354
    117  N         33.1160   31.4620   53.2260 N.3    86  TYR86      -0.1241
    118  CA        33.7230   32.6510   52.6410 C.3    86  TYR86       0.1605
    119  C         33.7880   33.8260   53.5720 C.2    86  TYR86       0.2264
    120  O         34.5130   34.7350   53.2180 O.2    86  TYR86      -0.2867
    121  CB        32.9950   33.0580   51.3740 C.3    86  TYR86       0.0534
    122  CG        33.4360   32.0370   50.3390 C.ar   86  TYR86      -0.0201
    123  CD1       34.8120   31.9160   50.0880 C.ar   86  TYR86      -0.0009
    124  CD2       32.5230   31.2210   49.6740 C.ar   86  TYR86      -0.0009
    125  CE1       35.2970   30.9880   49.1860 C.ar   86  TYR86       0.0417
    126  CE2       33.0020   30.2890   48.7660 C.ar   86  TYR86       0.0417
    127  CZ        34.3800   30.1890   48.5370 C.ar   86  TYR86       0.1957
    128  OH        34.8890   29.2660   47.6340 O.3    86  TYR86      -0.2866
    129  N         39.6950   33.0000   50.3280 N.3    91  ASP91      -0.1225
    130  CA        40.1320   31.8480   49.5400 C.3    91  ASP91       0.1805
    131  C         39.8600   31.9330   48.0490 C.2    91  ASP91       0.2598
    132  O         39.2940   31.0550   47.4230 O.2    91  ASP91      -0.2718
    133  CB        39.4920   30.5960   50.1660 C.3    91  ASP91       0.1424
    134  CG        39.7990   29.2280   49.5380 C.2    91  ASP91       0.3668
    135  OD1       40.9490   28.9280   49.2220 O.co2  91  ASP91      -0.2456
    136  OD2       38.8590   28.4570   49.3230 O.co2  91  ASP91      -0.2456
    137  N         40.2940   33.0390   47.4510 N.am   92  GLY92      -0.1942
    138  CA        40.1350   33.2120   46.0250 C.3    92  GLY92       0.2014
    139  C         39.1360   34.3120   45.7070 C.2    92  GLY92       0.2639
    140  O         39.1910   34.9250   44.6460 O.2    92  GLY92      -0.2714
    141  N         38.1730   34.5270   46.6050 N.am   93  LEU93      -0.1963
    142  CA        37.2010   35.6020   46.4900 C.3    93  LEU93       0.1728
    143  C         37.9250   36.9590   46.6080 C.2    93  LEU93       0.2616
    144  O         39.0030   37.1190   47.1940 O.2    93  LEU93      -0.2715
    145  CB        36.1750   35.4580   47.6090 C.3    93  LEU93       0.0311
    146  CG        34.6850   35.6860   47.4530 C.3    93  LEU93       0.0022
    147  CD1       33.9880   34.5060   46.7720 C.3    93  LEU93       0.0001
    148  CD2       34.1200   35.8500   48.8350 C.3    93  LEU93       0.0001
    149  N         37.3190   37.9750   46.0110 N.am   94  CYS94      -0.1968
    150  CA        37.8430   39.3090   46.0450 C.3    94  CYS94       0.1712
    151  C         37.9930   39.8300   47.4780 C.2    94  CYS94       0.2296
    152  O         38.9290   40.5590   47.7700 O.2    94  CYS94      -0.2864
    153  CB        36.9040   40.1540   45.1750 C.3    94  CYS94       0.0983
    154  SG        35.2840   40.4470   45.8860 S.3    94  CYS94      -0.0798
@<TRIPOS>BOND
     1    44    42    1
     2    41    40    2
     3    43    42    1
     4    42    39    1
     5    39    40    1
     6    39    38    1
     7    32    31    2
     8    31    38   am
     9    31    30    1
    10    33    30    1
    11    33    34    1
    12    89    90    1
    13    89    88    1
    14    11     9    1
    15    10     9    1
    16    30    29    1
    17    37    35   ar
    18     9     8    2
    19    35    36   ar
    20    35    34    1
    21    88    87    1
    22     8     7    1
    23    29    25   am
    24     6     7    1
    25     6     5    1
    26    28    27    1
    27    26    25    2
    28    25    24    1
    29     5     2    1
    30    87    86    1
    31    27    24    1
    32    86    83    1
    33    24    23    1
    34     1     2    1
    35     2     3    1
    36     3     4    2
    37    63    62    2
    38    67    69   ar
    39    67    65   ar
    40    64    65    1
    41    64    61    1
    42    22    20    1
    43    83    82    1
    44    83    84    1
    45    69    68   ar
    46    82    72   am
    47    65    66   ar
    48    21    20    1
    49   102   101    1
    50    62    61    1
    51    62    70   am
    52    85    84    2
    53    59    58    1
    54    20    19    2
    55    94    93    2
    56    60    61    1
    57    60    53   am
    58    68    66   ar
    59    72    71    1
    60    72    73    2
    61    71    70    1
    62    71    74    1
    63    50    49    1
    64    49    46    1
    65   101   100    1
    66    56    55    1
    67    56    57    1
    68    52    53    1
    69    52    55    1
    70    52    51    1
    71   100   103    1
    72   100    99    1
    73    53    54    2
    74    19    18    1
    75    93    99   am
    76    93    92    1
    77    58    57    1
    78    77    79   ar
    79    77    75   ar
    80   104   103    1
    81    74    75    1
    82    46    45    1
    83    46    47    1
    84   103   105    1
    85    79    80   ar
    86    97    95    1
    87    75    76   ar
    88    92    95    1
    89    92    91    1
    90    18    17    1
    91   111   112    1
    92   111   110    1
    93   106   107    1
    94    80    81    1
    95    80    78   ar
    96   112   113    1
    97    17    16    1
    98    76    78   ar
    99    95    96    1
   100    47    48    2
   101    15    14    2
   102    14    13    1
   103   107   110    1
   104   107   108    1
   105    96    98    1
   106   140   139    2
   107    16    13    1
   108   113   114    2
   109   115   114    1
   110   153   154    1
   111   153   150    1
   112   114   116    1
   113    13    12    1
   114   108   109    2
   115   139   138    1
   116   139   141   am
   117   149   150    1
   118   149   143   am
   119   138   137    1
   120   150   151    1
   121   142   141    1
   122   142   143    1
   123   142   145    1
   124   143   144    2
   125   147   146    1
   126   132   131    2
   127   137   131   am
   128   146   145    1
   129   146   148    1
   130   151   152    2
   131   128   127    1
   132   131   130    1
   133   127   126   ar
   134   127   125   ar
   135   126   124   ar
   136   125   123   ar
   137   135   134   ar
   138   136   134   ar
   139   134   133    1
   140   130   133    1
   141   130   129    1
   142   124   122   ar
   143   123   122   ar
   144   122   121    1
   145   121   118    1
   146   118   117    1
   147   118   119    1
   148   120   119    2
