@<TRIPOS>MOLECULE
tmp/1spsA00.pdb
 154 148 0 0 0
SMALL
GASTEIGER

@<TRIPOS>ATOM
      1  N         66.2530   99.9710   24.0810 N.3    11  ARG11      -0.1245
      2  CA        67.6930   99.8050   23.9540 C.3    11  ARG11       0.1563
      3  C         68.4030  101.1590   24.0810 C.2    11  ARG11       0.2260
      4  O         69.3720  101.2910   24.8360 O.2    11  ARG11      -0.2867
      5  CB        68.0270   99.1600   22.5900 C.3    11  ARG11       0.0307
      6  CG        69.5410   99.0420   22.4470 C.3    11  ARG11       0.0489
      7  CD        70.1060   98.4190   21.2000 C.3    11  ARG11       0.2205
      8  NE        69.9820   96.9910   21.2980 N.pl3  11  ARG11      -0.0865
      9  CZ        70.9250   96.1580   20.8600 C.cat  11  ARG11       0.5346
     10  NH1       72.0520   96.6150   20.3040 N.pl3  11  ARG11       0.1354
     11  NH2       70.6960   94.8400   20.9650 N.pl3  11  ARG11       0.1354
     12  N         65.4500   94.3960   30.9090 N.3    31  ARG31      -0.1245
     13  CA        64.3390   95.0830   30.2990 C.3    31  ARG31       0.1563
     14  C         63.6060   94.1260   29.3640 C.2    31  ARG31       0.2260
     15  O         63.9070   92.9470   29.2430 O.2    31  ARG31      -0.2867
     16  CB        64.8670   96.2760   29.5260 C.3    31  ARG31       0.0307
     17  CG        65.7060   95.9200   28.3150 C.3    31  ARG31       0.0489
     18  CD        66.3860   97.1490   27.7570 C.3    31  ARG31       0.2205
     19  NE        67.5440   96.8640   26.9220 N.pl3  31  ARG31      -0.0865
     20  CZ        67.3910   96.3470   25.6960 C.cat  31  ARG31       0.5346
     21  NH1       66.1830   96.0700   25.2020 N.pl3  31  ARG31       0.1354
     22  NH2       68.4500   96.1460   24.9170 N.pl3  31  ARG31       0.1354
     23  N         62.5120   92.9830   25.4900 N.3    33  SER33      -0.1202
     24  CA        63.1670   93.1480   24.2120 C.3    33  SER33       0.2020
     25  C         62.3060   93.9660   23.2580 C.2    33  SER33       0.2619
     26  O         61.1460   93.5950   23.0430 O.2    33  SER33      -0.2717
     27  CB        63.4360   91.8140   23.5720 C.3    33  SER33       0.2103
     28  OG        64.1800   92.1070   22.4060 O.3    33  SER33      -0.2182
     29  N         62.8360   95.0790   22.6990 N.am   34  GLU34      -0.1965
     30  CA        62.1620   95.8520   21.6420 C.3    34  GLU34       0.1733
     31  C         62.0400   95.0660   20.3410 C.2    34  GLU34       0.2617
     32  O         61.0730   95.1800   19.6030 O.2    34  GLU34      -0.2715
     33  CB        62.9020   97.0910   21.2480 C.3    34  GLU34       0.0429
     34  CG        62.9450   98.2640   22.1890 C.3    34  GLU34       0.1163
     35  CD        63.5050   99.4860   21.4660 C.2    34  GLU34       0.3649
     36  OE1       62.7200  100.1510   20.7910 O.co2  34  GLU34      -0.2457
     37  OE2       64.7010   99.7730   21.5610 O.co2  34  GLU34      -0.2457
     38  N         63.0240   94.2340   20.0430 N.am   35  THR35      -0.1951
     39  CA        63.0510   93.4900   18.8140 C.3    35  THR35       0.1897
     40  C         62.3730   92.1630   18.8560 C.2    35  THR35       0.2313
     41  O         61.9180   91.7430   17.8130 O.2    35  THR35      -0.2863
     42  CB        64.5180   93.3210   18.4250 C.3    35  THR35       0.1794
     43  OG1       64.8820   94.6470   18.0510 O.3    35  THR35      -0.2208
     44  CG2       64.8250   92.3510   17.2920 C.3    35  THR35       0.0378
     45  N         65.9160   91.1130   27.9290 N.3    41  CYS41      -0.1235
     46  CA        67.2810   91.4190   27.5940 C.3    41  CYS41       0.1677
     47  C         68.1100   91.8430   28.8170 C.2    41  CYS41       0.2270
     48  O         67.5970   92.4430   29.7480 O.2    41  CYS41      -0.2867
     49  CB        67.1560   92.4640   26.5300 C.3    41  CYS41       0.0956
     50  SG        68.8010   93.0690   26.1700 S.3    41  CYS41      -0.0801
     51  N         76.9250   95.6920   26.4100 N.3    56  LYS56      -0.1231
     52  CA        76.6660   94.4880   25.6700 C.3    56  LYS56       0.1693
     53  C         75.2140   94.1440   25.9690 C.2    56  LYS56       0.2592
     54  O         74.8040   94.3360   27.1090 O.2    56  LYS56      -0.2718
     55  CB        77.5720   93.4320   26.1660 C.3    56  LYS56       0.0285
     56  CG        78.9950   93.8650   26.2480 C.3    56  LYS56       0.0035
     57  CD        79.6670   93.7820   24.9310 C.3    56  LYS56       0.0206
     58  CE        81.0440   94.0900   25.4130 C.3    56  LYS56       0.1093
     59  NZ        82.0060   94.0240   24.3520 N.3    56  LYS56      -0.1314
     60  N         74.3930   93.6630   25.0430 N.am   57  HIS57      -0.1962
     61  CA        73.0150   93.3540   25.3480 C.3    57  HIS57       0.1787
     62  C         72.8980   91.8770   25.1490 C.2    57  HIS57       0.2620
     63  O         73.4230   91.3800   24.1640 O.2    57  HIS57      -0.2715
     64  CB        72.0260   94.0740   24.3940 C.3    57  HIS57       0.0785
     65  CG        71.9450   95.5880   24.5920 C.ar   57  HIS57       0.0821
     66  ND1       71.1900   96.2650   25.4470 N.ar   57  HIS57      -0.2267
     67  CD2       72.6920   96.5110   23.9270 C.ar   57  HIS57       0.1154
     68  CE1       71.4300   97.5340   25.3170 C.ar   57  HIS57       0.1986
     69  NE2       72.3500   97.6630   24.4140 N.ar   57  HIS57      -0.2212
     70  N         72.2540   91.1200   26.0250 N.am   58  TYR58      -0.1960
     71  CA        72.1460   89.6920   25.8200 C.3    58  TYR58       0.1771
     72  C         70.6880   89.3210   25.7930 C.2    58  TYR58       0.2619
     73  O         69.9700   89.7390   26.7050 O.2    58  TYR58      -0.2715
     74  CB        72.7970   88.9280   26.9440 C.3    58  TYR58       0.0574
     75  CG        74.3060   89.0690   27.0520 C.ar   58  TYR58      -0.0198
     76  CD1       74.8210   90.1150   27.7980 C.ar   58  TYR58      -0.0009
     77  CD2       75.1330   88.1540   26.4160 C.ar   58  TYR58      -0.0009
     78  CE1       76.1800   90.2550   27.9160 C.ar   58  TYR58       0.0417
     79  CE2       76.4890   88.3020   26.5380 C.ar   58  TYR58       0.0417
     80  CZ        76.9990   89.3490   27.2820 C.ar   58  TYR58       0.1957
     81  OH        78.3630   89.5290   27.3900 O.3    58  TYR58      -0.2866
     82  N         70.1840   88.5070   24.8620 N.am   59  LYS59      -0.1977
     83  CA        68.7500   88.2460   24.8820 C.3    59  LYS59       0.1596
     84  C         68.4650   87.0640   25.7500 C.2    59  LYS59       0.2287
     85  O         69.1220   86.0440   25.6220 O.2    59  LYS59      -0.2864
     86  CB        68.2270   87.9600   23.4920 C.3    59  LYS59       0.0298
     87  CG        66.7310   87.7860   23.3290 C.3    59  LYS59       0.0038
     88  CD        66.4310   87.7170   21.8540 C.3    59  LYS59       0.0206
     89  CE        66.8530   88.9860   21.1210 C.3    59  LYS59       0.1093
     90  NZ        66.9060   88.8150   19.6790 N.3    59  LYS59      -0.1314
     91  N         70.2610   82.4860   28.4220 N.3    70  ILE70      -0.1231
     92  CA        70.9670   83.2800   27.4350 C.3    70  ILE70       0.1692
     93  C         71.6970   82.2720   26.5290 C.2    70  ILE70       0.2589
     94  O         71.7750   82.4450   25.3100 O.2    70  ILE70      -0.2718
     95  CB        71.9760   84.2420   28.1460 C.3    70  ILE70       0.0266
     96  CG1       71.2360   85.2180   29.0080 C.3    70  ILE70       0.0019
     97  CG2       72.7530   85.0750   27.1250 C.3    70  ILE70       0.0020
     98  CD1       72.1790   86.1280   29.7850 C.3    70  ILE70       0.0001
     99  N         72.2050   81.1740   27.1340 N.am   71  THR71      -0.2006
    100  CA        72.9900   80.1800   26.4290 C.3    71  THR71       0.1584
    101  C         72.3940   78.7860   26.3070 C.3    71  THR71       0.2062
    102  O         72.7610   78.2220   25.2900 O.3    71  THR71      -0.2184
    103  CB        74.4600   80.2030   27.0990 C.3    71  THR71       0.1745
    104  OG1       75.1240   79.0310   26.7190 O.3    71  THR71      -0.2212
    105  CG2       74.4880   80.2350   28.5960 C.3    71  THR71       0.0374
    106  N         72.8410   75.8250   27.7760 N.3    73  ARG73      -0.1245
    107  CA        73.6010   74.9660   28.6250 C.3    73  ARG73       0.1563
    108  C         73.1170   75.4130   30.0000 C.2    73  ARG73       0.2260
    109  O         72.7190   74.5590   30.7850 O.2    73  ARG73      -0.2867
    110  CB        75.0960   75.2180   28.5310 C.3    73  ARG73       0.0307
    111  CG        75.6970   75.6730   27.2100 C.3    73  ARG73       0.0489
    112  CD        77.0880   76.2470   27.5510 C.3    73  ARG73       0.2205
    113  NE        77.1380   77.1190   28.7330 N.pl3  73  ARG73      -0.0865
    114  CZ        78.1840   77.9010   29.0340 C.cat  73  ARG73       0.5346
    115  NH1       79.2860   77.9770   28.2820 N.pl3  73  ARG73       0.1354
    116  NH2       78.1390   78.6190   30.1490 N.pl3  73  ARG73       0.1354
    117  N         74.7770   84.9790   37.3820 N.3    86  TYR86      -0.1241
    118  CA        75.7240   85.8670   36.7090 C.3    86  TYR86       0.1605
    119  C         76.3950   86.9290   37.5800 C.2    86  TYR86       0.2264
    120  O         77.2700   87.6490   37.1280 O.2    86  TYR86      -0.2867
    121  CB        75.0010   86.5320   35.5500 C.3    86  TYR86       0.0534
    122  CG        74.8160   85.4820   34.4940 C.ar   86  TYR86      -0.0201
    123  CD1       75.9440   84.8960   33.9660 C.ar   86  TYR86      -0.0009
    124  CD2       73.5550   85.1070   34.0670 C.ar   86  TYR86      -0.0009
    125  CE1       75.8260   83.9270   33.0070 C.ar   86  TYR86       0.0417
    126  CE2       73.4310   84.1220   33.0960 C.ar   86  TYR86       0.0417
    127  CZ        74.5730   83.5550   32.5880 C.ar   86  TYR86       0.1957
    128  OH        74.4880   82.5880   31.6240 O.3    86  TYR86      -0.2866
    129  N         80.8130   83.3610   33.7000 N.3    91  ASP91      -0.1225
    130  CA        80.6220   82.1720   32.8680 C.3    91  ASP91       0.1805
    131  C         80.1650   82.4400   31.4490 C.2    91  ASP91       0.2598
    132  O         79.1310   81.9580   30.9930 O.2    91  ASP91      -0.2718
    133  CB        79.6470   81.2620   33.6560 C.3    91  ASP91       0.1424
    134  CG        79.2040   79.9630   33.0150 C.2    91  ASP91       0.3668
    135  OD1       79.8270   79.4780   32.0730 O.co2  91  ASP91      -0.2456
    136  OD2       78.1960   79.4280   33.4550 O.co2  91  ASP91      -0.2456
    137  N         80.8850   83.2960   30.7500 N.am   92  GLY92      -0.1942
    138  CA        80.6240   83.5550   29.3460 C.3    92  GLY92       0.2014
    139  C         80.2340   85.0030   29.1300 C.2    92  GLY92       0.2639
    140  O         80.4620   85.6020   28.0780 O.2    92  GLY92      -0.2714
    141  N         79.6010   85.5950   30.1360 N.am   93  LEU93      -0.1963
    142  CA        79.2350   86.9790   30.0650 C.3    93  LEU93       0.1728
    143  C         80.4970   87.8150   29.9190 C.2    93  LEU93       0.2616
    144  O         81.5920   87.3870   30.2860 O.2    93  LEU93      -0.2715
    145  CB        78.4850   87.3080   31.3290 C.3    93  LEU93       0.0311
    146  CG        77.1580   87.9910   31.1950 C.3    93  LEU93       0.0022
    147  CD1       76.2020   87.2630   30.2500 C.3    93  LEU93       0.0001
    148  CD2       76.6110   88.0580   32.5850 C.3    93  LEU93       0.0001
    149  N         80.3710   89.0350   29.3980 N.am   94  CYS94      -0.1968
    150  CA        81.5130   89.8910   29.1650 C.3    94  CYS94       0.1712
    151  C         82.1440   90.2660   30.4610 C.2    94  CYS94       0.2296
    152  O         83.3460   90.4910   30.5180 O.2    94  CYS94      -0.2864
    153  CB        81.0760   91.1230   28.4300 C.3    94  CYS94       0.0983
    154  SG        79.8500   92.1100   29.3050 S.3    94  CYS94      -0.0798
@<TRIPOS>BOND
     1    44    42    1
     2    41    40    2
     3    43    42    1
     4    42    39    1
     5    39    40    1
     6    39    38    1
     7    32    31    2
     8    90    89    1
     9    38    31   am
    10    10     9    1
    11    31    30    1
    12    36    35   ar
    13     9    11    1
    14     9     8    2
    15    89    88    1
    16     7     8    1
    17     7     6    1
    18    33    30    1
    19    33    34    1
    20    35    37   ar
    21    35    34    1
    22    30    29    1
    23    88    87    1
    24    28    27    1
    25     6     5    1
    26     5     2    1
    27    29    25   am
    28    26    25    2
    29    25    24    1
    30    87    86    1
    31    86    83    1
    32    27    24    1
    33    67    69   ar
    34    67    65   ar
    35     2     1    1
    36     2     3    1
    37     3     4    2
    38    63    62    2
    39    24    23    1
    40    59    58    1
    41    64    65    1
    42    64    61    1
    43    69    68   ar
    44    65    66   ar
    45    82    83    1
    46    82    72   am
    47    83    84    1
    48    22    20    1
    49    57    58    1
    50    57    56    1
    51    60    61    1
    52    60    53   am
    53    62    61    1
    54    62    70   am
    55    21    20    1
    56   102   101    1
    57    94    93    2
    58    68    66   ar
    59    85    84    2
    60    52    53    1
    61    52    55    1
    62    52    51    1
    63    20    19    2
    64    72    71    1
    65    72    73    2
    66    71    70    1
    67    71    74    1
    68    53    54    2
    69    55    56    1
    70    50    49    1
    71   101   100    1
    72    77    79   ar
    73    77    75   ar
    74   100   103    1
    75   100    99    1
    76    93    99   am
    77    93    92    1
    78    49    46    1
    79    79    80   ar
    80   104   103    1
    81    19    18    1
    82    74    75    1
    83    75    76   ar
    84   103   105    1
    85    97    95    1
    86   111   112    1
    87   111   110    1
    88    80    81    1
    89    80    78   ar
    90    92    95    1
    91    92    91    1
    92   112   113    1
    93    46    45    1
    94    46    47    1
    95    18    17    1
    96   106   107    1
    97    76    78   ar
    98   140   139    2
    99    95    96    1
   100   115   114    1
   101    17    16    1
   102   153   150    1
   103   153   154    1
   104   110   107    1
   105   107   108    1
   106   113   114    2
   107    47    48    2
   108    96    98    1
   109   114   116    1
   110   139   138    1
   111   139   141   am
   112   150   149    1
   113   150   151    1
   114    15    14    2
   115   138   137    1
   116    14    13    1
   117   149   143   am
   118    16    13    1
   119   143   142    1
   120   143   144    2
   121   108   109    2
   122   142   141    1
   123   142   145    1
   124   147   146    1
   125    13    12    1
   126   151   152    2
   127   137   131   am
   128   132   131    2
   129   146   145    1
   130   146   148    1
   131   131   130    1
   132   128   127    1
   133   135   134   ar
   134   127   125   ar
   135   127   126   ar
   136   130   133    1
   137   130   129    1
   138   125   123   ar
   139   134   136   ar
   140   134   133    1
   141   126   124   ar
   142   123   122   ar
   143   124   122   ar
   144   122   121    1
   145   121   118    1
   146   118   117    1
   147   118   119    1
   148   120   119    2
