@<TRIPOS>MOLECULE
tmp/1spsE00.pdb
 168 160 0 0 0
SMALL
GASTEIGER

@<TRIPOS>ATOM
      1  N         36.6540   77.0630    4.9940 N.3    11  ARG11      -0.1245
      2  CA        38.0150   76.5610    4.8170 C.3    11  ARG11       0.1563
      3  C         38.2490   76.1550    3.3520 C.2    11  ARG11       0.2260
      4  O         39.3330   76.4290    2.8400 O.2    11  ARG11      -0.2867
      5  CB        38.2590   75.3540    5.7500 C.3    11  ARG11       0.0307
      6  CG        39.6580   74.7660    5.5470 C.3    11  ARG11       0.0489
      7  CD        39.9800   73.4950    6.2990 C.3    11  ARG11       0.2205
      8  NE        40.2730   73.7830    7.6870 N.pl3  11  ARG11      -0.0865
      9  CZ        41.3980   73.3580    8.2830 C.cat  11  ARG11       0.5346
     10  NH1       42.3280   72.6390    7.6380 N.pl3  11  ARG11       0.1354
     11  NH2       41.5970   73.6820    9.5660 N.pl3  11  ARG11       0.1354
     12  N         40.1280   84.6990    8.5670 N.3    31  ARG31      -0.1245
     13  CA        38.7070   84.4340    8.4430 C.3    31  ARG31       0.1563
     14  C         38.1440   84.0040    9.7900 C.2    31  ARG31       0.2260
     15  O         38.8240   83.9780   10.8080 O.2    31  ARG31      -0.2867
     16  CB        38.4930   83.3670    7.3780 C.3    31  ARG31       0.0307
     17  CG        39.2210   82.0920    7.6500 C.3    31  ARG31       0.0489
     18  CD        38.8460   81.0850    6.5990 C.3    31  ARG31       0.2205
     19  NE        39.5350   79.8440    6.8590 N.pl3  31  ARG31      -0.0865
     20  CZ        39.2000   79.0510    7.8820 C.cat  31  ARG31       0.5346
     21  NH1       38.2000   79.3580    8.7150 N.pl3  31  ARG31       0.1354
     22  NH2       39.9130   77.9480    8.0910 N.pl3  31  ARG31       0.1354
     23  N         36.6670   81.2050   12.4210 N.3    33  SER33      -0.1202
     24  CA        36.8090   79.7600   12.4390 C.3    33  SER33       0.2020
     25  C         35.4650   79.0820   12.2850 C.2    33  SER33       0.2619
     26  O         34.4840   79.3990   12.9470 O.2    33  SER33      -0.2717
     27  CB        37.4230   79.2740   13.7180 C.3    33  SER33       0.2103
     28  OG        37.6910   77.9000   13.4990 O.3    33  SER33      -0.2182
     29  N         35.4660   78.1210   11.3720 N.am   34  GLU34      -0.1965
     30  CA        34.2960   77.3400   11.0080 C.3    34  GLU34       0.1733
     31  C         33.9100   76.3210   12.0680 C.2    34  GLU34       0.2617
     32  O         32.8180   75.7730   11.9880 O.2    34  GLU34      -0.2715
     33  CB        34.6140   76.6690    9.6990 C.3    34  GLU34       0.0429
     34  CG        33.5290   76.2510    8.7260 C.3    34  GLU34       0.1163
     35  CD        34.0640   75.6540    7.4150 C.2    34  GLU34       0.3649
     36  OE1       35.2180   75.2150    7.3430 O.co2  34  GLU34      -0.2457
     37  OE2       33.3160   75.6100    6.4390 O.co2  34  GLU34      -0.2457
     38  N         34.7560   76.0010   13.0620 N.am   35  THR35      -0.1951
     39  CA        34.3820   75.0840   14.1400 C.3    35  THR35       0.1897
     40  C         34.3520   75.8850   15.4390 C.2    35  THR35       0.2313
     41  O         33.2710   76.2610   15.8870 O.2    35  THR35      -0.2863
     42  CB        35.3850   73.8580   14.3020 C.3    35  THR35       0.1794
     43  OG1       36.6630   74.3180   14.6920 O.3    35  THR35      -0.2208
     44  CG2       35.5470   73.0960   13.0060 C.3    35  THR35       0.0378
     45  N         40.9170   82.4180   12.0230 N.3    41  CYS41      -0.1235
     46  CA        41.9430   81.5770   11.4700 C.3    41  CYS41       0.1677
     47  C         42.7230   82.3830   10.4930 C.2    41  CYS41       0.2270
     48  O         42.1690   83.0620    9.6360 O.2    41  CYS41      -0.2867
     49  CB        41.4190   80.3800   10.6880 C.3    41  CYS41       0.0956
     50  SG        40.2440   79.4120   11.6650 S.3    41  CYS41      -0.0801
     51  N         55.8330   67.6930   -0.6240 N.3    51  LYS51      -0.1245
     52  CA        54.3920   67.8280   -0.3700 C.3    51  LYS51       0.1561
     53  C         53.7890   68.8890   -1.3160 C.2    51  LYS51       0.2260
     54  O         52.5940   68.8740   -1.6380 O.2    51  LYS51      -0.2867
     55  CB        54.2440   68.2140    1.1010 C.3    51  LYS51       0.0271
     56  CG        52.8760   68.1770    1.7420 C.3    51  LYS51       0.0035
     57  CD        53.1900   68.2410    3.2270 C.3    51  LYS51       0.0206
     58  CE        51.9600   68.0810    4.1100 C.3    51  LYS51       0.1093
     59  NZ        52.3390   68.0980    5.5160 N.3    51  LYS51      -0.1314
     60  N         48.3630   76.1830    5.3660 N.3    56  LYS56      -0.1231
     61  CA        48.3260   75.9760    6.8090 C.3    56  LYS56       0.1693
     62  C         47.2330   76.8370    7.3820 C.2    56  LYS56       0.2592
     63  O         47.1010   77.9900    7.0140 O.2    56  LYS56      -0.2718
     64  CB        49.5820   76.3940    7.5580 C.3    56  LYS56       0.0285
     65  CG        50.8060   76.7890    6.7530 C.3    56  LYS56       0.0035
     66  CD        51.4710   75.7330    5.8600 C.3    56  LYS56       0.0206
     67  CE        52.2790   74.6720    6.5840 C.3    56  LYS56       0.1093
     68  NZ        51.3920   73.7020    7.2000 N.3    56  LYS56      -0.1314
     69  N         46.4190   76.3040    8.2720 N.am   57  HIS57      -0.1962
     70  CA        45.3810   77.0960    8.9010 C.3    57  HIS57       0.1787
     71  C         45.7730   77.2050   10.3450 C.2    57  HIS57       0.2620
     72  O         45.8980   76.1580   10.9760 O.2    57  HIS57      -0.2715
     73  CB        43.9940   76.4110    8.7990 C.3    57  HIS57       0.0785
     74  CG        43.4760   76.3260    7.3730 C.ar   57  HIS57       0.0821
     75  ND1       42.6020   77.1240    6.7750 N.ar   57  HIS57      -0.2267
     76  CD2       43.8640   75.3840    6.4550 C.ar   57  HIS57       0.1154
     77  CE1       42.4550   76.7090    5.5460 C.ar   57  HIS57       0.1986
     78  NE2       43.2180   75.6610    5.3640 N.ar   57  HIS57      -0.2212
     79  N         46.0060   78.3940   10.8910 N.am   58  TYR58      -0.1960
     80  CA        46.3190   78.5350   12.3120 C.3    58  TYR58       0.1771
     81  C         45.1420   79.1730   12.9940 C.2    58  TYR58       0.2619
     82  O         44.6710   80.2090   12.5560 O.2    58  TYR58      -0.2715
     83  CB        47.4610   79.4490   12.6180 C.3    58  TYR58       0.0574
     84  CG        48.7630   79.0360   12.0020 C.ar   58  TYR58      -0.0198
     85  CD1       48.9870   79.2280   10.6560 C.ar   58  TYR58      -0.0009
     86  CD2       49.7010   78.4770   12.8160 C.ar   58  TYR58      -0.0009
     87  CE1       50.1770   78.8500   10.0950 C.ar   58  TYR58       0.0417
     88  CE2       50.8970   78.1010   12.2570 C.ar   58  TYR58       0.0417
     89  CZ        51.1310   78.2850   10.9100 C.ar   58  TYR58       0.1957
     90  OH        52.3470   77.8920   10.3700 O.3    58  TYR58      -0.2866
     91  N         44.6470   78.6410   14.0850 N.am   59  LYS59      -0.1977
     92  CA        43.4980   79.2170   14.7170 C.3    59  LYS59       0.1596
     93  C         43.9060   80.3070   15.6860 C.2    59  LYS59       0.2287
     94  O         44.7540   80.1050   16.5460 O.2    59  LYS59      -0.2864
     95  CB        42.7780   78.0900   15.3890 C.3    59  LYS59       0.0298
     96  CG        41.4940   78.5150   16.0650 C.3    59  LYS59       0.0038
     97  CD        40.8970   77.3050   16.7380 C.3    59  LYS59       0.0206
     98  CE        40.5660   76.3300   15.6210 C.3    59  LYS59       0.1093
     99  NZ        40.1870   75.0150   16.1180 N.3    59  LYS59      -0.1314
    100  N         42.8930   82.7250   18.7340 N.3    61  ARG61      -0.1245
    101  CA        41.9320   82.7130   19.8020 C.3    61  ARG61       0.1563
    102  C         41.7790   84.0450   20.4730 C.2    61  ARG61       0.2260
    103  O         42.6230   84.9290   20.3810 O.2    61  ARG61      -0.2867
    104  CB        42.3240   81.6850   20.8390 C.3    61  ARG61       0.0307
    105  CG        41.9730   80.3310   20.2690 C.3    61  ARG61       0.0489
    106  CD        42.2280   79.2450   21.2610 C.3    61  ARG61       0.2205
    107  NE        41.9850   77.9470   20.6490 N.pl3  61  ARG61      -0.0865
    108  CZ        42.9960   77.1900   20.2450 C.cat  61  ARG61       0.5346
    109  NH1       44.2610   77.6010   20.3790 N.pl3  61  ARG61       0.1354
    110  NH2       42.7440   75.9800   19.7490 N.pl3  61  ARG61       0.1354
    111  N         47.9590   83.1760   18.7220 N.3    70  ILE70      -0.1231
    112  CA        48.0700   81.8910   18.0770 C.3    70  ILE70       0.1692
    113  C         48.7830   80.9890   19.1050 C.2    70  ILE70       0.2592
    114  O         48.4680   79.8110   19.1920 O.2    70  ILE70      -0.2718
    115  CB        48.8850   82.0510   16.7770 C.3    70  ILE70       0.0266
    116  CG1       48.1140   82.9740   15.7920 C.3    70  ILE70       0.0019
    117  CG2       49.2430   80.6230   16.2580 C.3    70  ILE70       0.0020
    118  CD1       48.7780   83.1720   14.4030 C.3    70  ILE70       0.0001
    119  N         49.6740   81.5060   19.9800 N.am   71  THR71      -0.1953
    120  CA        50.4600   80.6860   20.8790 C.3    71  THR71       0.1897
    121  C         50.3220   80.9660   22.3610 C.2    71  THR71       0.2313
    122  O         50.6740   80.0560   23.0970 O.2    71  THR71      -0.2863
    123  CB        51.9930   80.7670   20.5120 C.3    71  THR71       0.1794
    124  OG1       52.6710   81.3860   21.5950 O.3    71  THR71      -0.2208
    125  CG2       52.3150   81.6570   19.3290 C.3    71  THR71       0.0378
    126  N         52.3300   82.6650   24.2700 N.3    73  ARG73      -0.1245
    127  CA        53.6020   83.3840   24.4890 C.3    73  ARG73       0.1563
    128  C         53.4400   84.7750   23.8550 C.2    73  ARG73       0.2260
    129  O         53.5180   85.8260   24.5010 O.2    73  ARG73      -0.2867
    130  CB        54.8240   82.7840   23.7770 C.3    73  ARG73       0.0307
    131  CG        54.9950   81.2760   23.7790 C.3    73  ARG73       0.0489
    132  CD        56.1120   80.8680   22.8160 C.3    73  ARG73       0.2205
    133  NE        56.0540   81.5780   21.5430 N.pl3  73  ARG73      -0.0865
    134  CZ        56.8110   81.2500   20.4900 C.cat  73  ARG73       0.5346
    135  NH1       57.6670   80.2310   20.4940 N.pl3  73  ARG73       0.1354
    136  NH2       56.8000   82.0540   19.4260 N.pl3  73  ARG73       0.1354
    137  N         53.4940   88.9400   12.5680 N.3    86  TYR86      -0.1241
    138  CA        53.9990   87.8570   11.7400 C.3    86  TYR86       0.1605
    139  C         54.3250   88.3650   10.3390 C.2    86  TYR86       0.2264
    140  O         54.9620   87.6830    9.5500 O.2    86  TYR86      -0.2867
    141  CB        52.9430   86.7480   11.7270 C.3    86  TYR86       0.0534
    142  CG        52.7790   86.1380   13.1110 C.ar   86  TYR86      -0.0201
    143  CD1       53.7430   85.2820   13.6030 C.ar   86  TYR86      -0.0009
    144  CD2       51.6800   86.4410   13.8820 C.ar   86  TYR86      -0.0009
    145  CE1       53.6100   84.7310   14.8660 C.ar   86  TYR86       0.0417
    146  CE2       51.5460   85.8930   15.1470 C.ar   86  TYR86       0.0417
    147  CZ        52.5090   85.0330   15.6480 C.ar   86  TYR86       0.1957
    148  OH        52.3820   84.4780   16.9260 O.3    86  TYR86      -0.2866
    149  N         57.5420   84.4370   14.4720 N.3    91  ASP91      -0.1225
    150  CA        57.9030   83.3050   15.3120 C.3    91  ASP91       0.1805
    151  C         56.8720   82.2270   15.6100 C.2    91  ASP91       0.2598
    152  O         55.9050   82.3580   16.3690 O.2    91  ASP91      -0.2718
    153  CB        58.4580   83.8060   16.6500 C.3    91  ASP91       0.1424
    154  CG        57.6400   84.8420   17.3970 C.2    91  ASP91       0.3668
    155  OD1       56.6590   84.5070   18.0670 O.co2  91  ASP91      -0.2456
    156  OD2       58.0100   86.0020   17.3070 O.co2  91  ASP91      -0.2456
    157  N         57.1960   81.1240   14.9230 N.am   92  GLY92      -0.1942
    158  CA        56.4520   79.8760   14.9900 C.3    92  GLY92       0.2014
    159  C         55.8540   79.4440   13.6530 C.2    92  GLY92       0.2638
    160  O         55.7360   78.2600   13.3460 O.2    92  GLY92      -0.2714
    161  N         55.4810   80.4390   12.8440 N.am   93  LEU93      -0.1977
    162  CA        54.7920   80.2400   11.5800 C.3    93  LEU93       0.1596
    163  C         55.6690   79.6850   10.4810 C.2    93  LEU93       0.2287
    164  O         56.8880   79.8120   10.4560 O.2    93  LEU93      -0.2864
    165  CB        54.1830   81.5730   11.0930 C.3    93  LEU93       0.0297
    166  CG        52.7030   81.9250   11.2300 C.3    93  LEU93       0.0022
    167  CD1       52.2450   81.8690   12.6710 C.3    93  LEU93       0.0001
    168  CD2       52.5090   83.3240   10.6620 C.3    93  LEU93       0.0001
@<TRIPOS>BOND
     1    54    53    2
     2    53    52    1
     3    51    52    1
     4    52    55    1
     5    55    56    1
     6    56    57    1
     7     4     3    2
     8    57    58    1
     9     3     2    1
    10    58    59    1
    11     2     1    1
    12     2     5    1
    13    78    77   ar
    14    78    76   ar
    15    60    61    1
    16    77    75   ar
    17     6     5    1
    18     6     7    1
    19    66    67    1
    20    66    65    1
    21     7     8    1
    22    37    35   ar
    23    76    74   ar
    24    67    68    1
    25    18    19    1
    26    18    17    1
    27    65    64    1
    28    75    74   ar
    29    61    62    1
    30    61    64    1
    31    19    20    2
    32    63    62    2
    33    36    35   ar
    34    74    73    1
    35    16    17    1
    36    16    13    1
    37    62    69   am
    38    35    34    1
    39    10     9    1
    40     8     9    2
    41    20    22    1
    42    20    21    1
    43    69    70    1
    44     9    11    1
    45    13    12    1
    46    13    14    1
    47    34    33    1
    48    73    70    1
    49    70    71    1
    50   140   139    2
    51    48    47    2
    52    33    30    1
    53    14    15    2
    54    87    85   ar
    55    87    89   ar
    56   139   138    1
    57    71    79   am
    58    71    72    2
    59    90    89    1
    60   164   163    2
    61   163   162    1
    62    47    46    1
    63    85    84   ar
    64   168   166    1
    65    49    46    1
    66    49    50    1
    67    79    80    1
    68    89    88   ar
    69    30    29    1
    70    30    31    1
    71   165   166    1
    72   165   162    1
    73   166   167    1
    74    29    25   am
    75    46    45    1
    76   162   161    1
    77   141   138    1
    78   141   142    1
    79   138   137    1
    80    32    31    2
    81    84    83    1
    82    84    86   ar
    83    31    38   am
    84    88    86   ar
    85    25    24    1
    86    25    26    2
    87    80    83    1
    88    80    81    1
    89    23    24    1
    90    24    27    1
    91    82    81    2
    92   161   159   am
    93    81    91   am
    94    44    42    1
    95    38    39    1
    96   142   143   ar
    97   142   144   ar
    98   160   159    2
    99    28    27    1
   100   143   145   ar
   101   159   158    1
   102   144   146   ar
   103    91    92    1
   104    39    42    1
   105    39    40    1
   106    42    43    1
   107   118   116    1
   108   149   150    1
   109    92    95    1
   110    92    93    1
   111   145   147   ar
   112   157   158    1
   113   157   151   am
   114   146   147   ar
   115   150   151    1
   116   150   153    1
   117    95    96    1
   118    40    41    2
   119   151   152    2
   120    98    99    1
   121    98    97    1
   122   147   148    1
   123    93    94    2
   124   116   115    1
   125    96    97    1
   126   117   115    1
   127   153   154    1
   128   115   112    1
   129   156   154   ar
   130   154   155   ar
   131   112   111    1
   132   112   113    1
   133   100   101    1
   134   113   114    2
   135   113   119   am
   136   125   123    1
   137   136   134    1
   138   110   108    1
   139   101   102    1
   140   101   104    1
   141   119   120    1
   142   108   109    1
   143   108   107    2
   144   105   104    1
   145   105   106    1
   146   103   102    2
   147   134   135    1
   148   134   133    2
   149   123   120    1
   150   123   124    1
   151   107   106    1
   152   120   121    1
   153   133   132    1
   154   121   122    2
   155   132   131    1
   156   130   131    1
   157   130   127    1
   158   128   127    1
   159   128   129    2
   160   126   127    1
