@<TRIPOS>MOLECULE
tmp/1spvA00.pdb
 87 82 0 0 0
SMALL
GASTEIGER

@<TRIPOS>ATOM
      1  N         32.7120   37.3930   23.0210 N.3    21  ALA21      -0.1231
      2  CA        32.6170   36.1100   23.7080 C.3    21  ALA21       0.1694
      3  C         33.4890   36.3400   24.9310 C.2    21  ALA21       0.2592
      4  O         34.7140   36.2380   24.8600 O.2    21  ALA21      -0.2718
      5  CB        33.1920   34.9910   22.8440 C.3    21  ALA21       0.0304
      6  N         32.8570   36.6780   26.0480 N.am   22  ALA22      -0.1966
      7  CA        33.5880   36.9670   27.2700 C.3    22  ALA22       0.1728
      8  C         33.3990   35.9100   28.3460 C.2    22  ALA22       0.2616
      9  O         32.8250   34.8470   28.1000 O.2    22  ALA22      -0.2715
     10  CB        33.1520   38.3270   27.7990 C.3    22  ALA22       0.0334
     11  N         33.9120   36.1870   29.5380 N.am   23  ASN23      -0.1972
     12  CA        33.7420   35.2530   30.6440 C.3    23  ASN23       0.1688
     13  C         32.7590   35.9040   31.6020 C.2    23  ASN23       0.2292
     14  O         32.5280   37.1190   31.5410 O.2    23  ASN23      -0.2864
     15  CB        35.0640   34.9780   31.3580 C.3    23  ASN23       0.1181
     16  CG        35.6390   36.2120   32.0030 C.2    23  ASN23       0.2629
     17  OD1       36.1400   37.1000   31.3170 O.2    23  ASN23      -0.2716
     18  ND2       35.5630   36.2830   33.3290 N.am   23  ASN23      -0.0877
     19  N         39.4560   39.3780   29.2510 N.3    28  GLY28      -0.1210
     20  CA        40.4440   38.3230   29.4020 C.3    28  GLY28       0.1956
     21  C         41.3060   38.2030   28.1590 C.2    28  GLY28       0.2612
     22  O         41.7310   39.2120   27.6000 O.2    28  GLY28      -0.2717
     23  N         41.5660   36.9750   27.7180 N.am   29  GLY29      -0.1956
     24  CA        42.3830   36.7770   26.5320 C.3    29  GLY29       0.1869
     25  C         41.5740   36.5040   25.2740 C.2    29  GLY29       0.2309
     26  O         40.3440   36.5770   25.2840 O.2    29  GLY29      -0.2863
     27  N         39.8180   36.9310   21.6430 N.3    31  VAL31      -0.1231
     28  CA        39.0870   38.0500   21.0690 C.3    31  VAL31       0.1692
     29  C         38.5660   39.0060   22.1470 C.2    31  VAL31       0.2592
     30  O         38.5010   40.2090   21.9160 O.2    31  VAL31      -0.2718
     31  CB        37.9120   37.5610   20.1960 C.3    31  VAL31       0.0266
     32  CG1       37.2520   38.7430   19.5090 C.3    31  VAL31       0.0020
     33  CG2       38.4200   36.5710   19.1470 C.3    31  VAL31       0.0020
     34  N         38.2000   38.4790   23.3150 N.am   32  ASP32      -0.1974
     35  CA        37.7040   39.3190   24.4090 C.3    32  ASP32       0.1709
     36  C         38.7790   40.3610   24.7450 C.2    32  ASP32       0.2293
     37  O         38.4850   41.5500   24.8950 O.2    32  ASP32      -0.2864
     38  CB        37.3610   38.4470   25.6380 C.3    32  ASP32       0.1436
     39  CG        36.8040   39.2550   26.8220 C.2    32  ASP32       0.3671
     40  OD1       36.1260   40.2770   26.6120 O.co2  32  ASP32      -0.2456
     41  OD2       37.0270   38.8480   27.9830 O.co2  32  ASP32      -0.2456
     42  N         29.6280   31.8670   26.3020 N.3    80  GLY80      -0.1225
     43  CA        29.3290   30.5660   25.7310 C.3    80  GLY80       0.1811
     44  C         29.6590   29.4460   26.7030 C.2    80  GLY80       0.2280
     45  O         30.3430   29.6700   27.6980 O.2    80  GLY80      -0.2866
     46  N         33.4580   33.2650   16.8250 N.3   117  ALA117     -0.1231
     47  CA        33.0990   31.8440   16.9190 C.3   117  ALA117      0.1694
     48  C         33.0030   31.4310   18.3830 C.2   117  ALA117      0.2592
     49  O         33.8750   30.7290   18.9000 O.2   117  ALA117     -0.2718
     50  CB        34.1360   30.9820   16.2050 C.3   117  ALA117      0.0304
     51  N         31.9270   31.8560   19.0380 N.am  118  ILE118     -0.1966
     52  CA        31.7060   31.5780   20.4520 C.3   118  ILE118      0.1727
     53  C         32.0210   30.1650   20.9330 C.2   118  ILE118      0.2616
     54  O         31.5990   29.1820   20.3210 O.2   118  ILE118     -0.2715
     55  CB        30.2550   31.9020   20.8500 C.3   118  ILE118      0.0290
     56  CG1       29.9640   33.3790   20.5780 C.3   118  ILE118      0.0022
     57  CG2       30.0380   31.5740   22.3210 C.3   118  ILE118      0.0023
     58  CD1       28.5180   33.7850   20.8110 C.3   118  ILE118      0.0001
     59  N         32.7600   30.0900   22.0430 N.am  119  SER119     -0.1950
     60  CA        33.1440   28.8300   22.6790 C.3   119  SER119      0.1924
     61  C         34.1680   27.9650   21.9360 C.2   119  SER119      0.2314
     62  O         34.6000   26.9340   22.4590 O.2   119  SER119     -0.2863
     63  CB        31.8910   27.9880   22.9850 C.3   119  SER119      0.2116
     64  OG        31.1640   28.5190   24.0780 O.3   119  SER119     -0.2180
     65  N         37.1060   28.9550   21.2270 N.3   121  GLY121     -0.1210
     66  CA        38.4280   29.3750   21.6450 C.3   121  GLY121      0.1956
     67  C         38.9660   28.4480   22.7210 C.2   121  GLY121      0.2612
     68  O         39.1430   27.2500   22.4920 O.2   121  GLY121     -0.2717
     69  N         39.2090   28.9990   23.9030 N.am  122  VAL122     -0.1965
     70  CA        39.7330   28.2180   25.0100 C.3   122  VAL122      0.1727
     71  C         38.6660   27.3020   25.6250 C.2   122  VAL122      0.2616
     72  O         38.9950   26.3650   26.3530 O.2   122  VAL122     -0.2715
     73  CB        40.3250   29.1520   26.0970 C.3   122  VAL122      0.0290
     74  CG1       39.2120   29.8030   26.8990 C.3   122  VAL122      0.0023
     75  CG2       41.2670   28.3800   26.9910 C.3   122  VAL122      0.0023
     76  N         37.3910   27.5630   25.3310 N.am  123  TYR123     -0.1974
     77  CA        36.3070   26.7300   25.8600 C.3   123  TYR123      0.1639
     78  C         36.2120   25.3590   25.1950 C.2   123  TYR123      0.2290
     79  O         35.4690   24.4880   25.6520 O.2   123  TYR123     -0.2864
     80  CB        34.9680   27.4600   25.7530 C.3   123  TYR123      0.0560
     81  CG        34.7790   28.4890   26.8420 C.ar  123  TYR123     -0.0198
     82  CD1       33.6330   29.2810   26.8900 C.ar  123  TYR123     -0.0009
     83  CD2       35.7530   28.6730   27.8250 C.ar  123  TYR123     -0.0009
     84  CE1       33.4600   30.2310   27.8880 C.ar  123  TYR123      0.0417
     85  CE2       35.5960   29.6220   28.8270 C.ar  123  TYR123      0.0417
     86  CZ        34.4420   30.4000   28.8500 C.ar  123  TYR123      0.1957
     87  OH        34.2850   31.3500   29.8290 O.3   123  TYR123     -0.2866
@<TRIPOS>BOND
     1    50    47    1
     2    46    47    1
     3    47    48    1
     4    48    49    2
     5    48    51   am
     6    51    52    1
     7    33    31    1
     8    32    31    1
     9    31    28    1
    10    54    53    2
    11    52    55    1
    12    52    53    1
    13    56    58    1
    14    56    55    1
    15    55    57    1
    16    53    59   am
    17    28    27    1
    18    28    29    1
    19    65    66    1
    20    66    67    1
    21    30    29    2
    22    61    62    2
    23    61    60    1
    24    59    60    1
    25    29    34   am
    26    68    67    2
    27    60    63    1
    28    67    69   am
    29     5     2    1
    30    63    64    1
    31     1     2    1
    32    34    35    1
    33     2     3    1
    34    69    70    1
    35    35    36    1
    36    35    38    1
    37    36    37    2
    38     4     3    2
    39     3     6   am
    40    70    71    1
    41    70    73    1
    42    78    79    2
    43    78    77    1
    44    25    26    2
    45    25    24    1
    46    76    71   am
    47    76    77    1
    48    71    72    2
    49    38    39    1
    50    43    42    1
    51    43    44    1
    52    80    77    1
    53    80    81    1
    54     6     7    1
    55    73    74    1
    56    73    75    1
    57    24    23    1
    58    40    39   ar
    59    44    45    2
    60    39    41   ar
    61    81    82   ar
    62    81    83   ar
    63    82    84   ar
    64     7    10    1
    65     7     8    1
    66    22    21    2
    67    23    21   am
    68    83    85   ar
    69    84    86   ar
    70     9     8    2
    71    21    20    1
    72     8    11   am
    73    85    86   ar
    74    86    87    1
    75    19    20    1
    76    11    12    1
    77    12    15    1
    78    12    13    1
    79    17    16    2
    80    15    16    1
    81    14    13    2
    82    16    18   am
