@<TRIPOS>MOLECULE
tmp/1sqaA00.pdb
 183 180 0 0 0
SMALL
GASTEIGER

@<TRIPOS>ATOM
      1  N         22.9930    9.5190   24.7620 N.3    46  HIS46      -0.1226
      2  CA        24.1030    9.9760   25.6580 C.3    46  HIS46       0.1752
      3  C         24.2860    9.0540   26.8530 C.2    46  HIS46       0.2596
      4  O         25.3890    8.9500   27.4000 O.2    46  HIS46      -0.2718
      5  CB        23.8850   11.5230   26.1150 C.3    46  HIS46       0.0759
      6  CG        23.1060   11.7230   27.3940 C.ar   46  HIS46       0.0818
      7  ND1       21.9200   12.4310   27.4230 N.ar   46  HIS46      -0.2268
      8  CD2       23.4420   11.4870   28.6890 C.ar   46  HIS46       0.1154
      9  CE1       21.5680   12.6430   28.6870 C.ar   46  HIS46       0.1986
     10  NE2       22.4740   12.0780   29.4720 N.ar   46  HIS46      -0.2212
     11  N         23.2470    8.3080   27.2250 N.am   47  CYS47      -0.1970
     12  CA        23.3330    7.4410   28.4380 C.3    47  CYS47       0.1712
     13  C         24.1450    6.1280   28.0680 C.2    47  CYS47       0.2296
     14  O         24.5950    5.4040   28.9690 O.2    47  CYS47      -0.2864
     15  CB        21.8950    6.9660   28.9110 C.3    47  CYS47       0.0983
     16  SG        20.6930    8.2270   29.4920 S.3    47  CYS47      -0.0798
     17  N         26.2560    5.7710   24.7920 N.3    49  ILE49      -0.1231
     18  CA        27.2780    5.9590   23.6760 C.3    49  ILE49       0.1692
     19  C         28.7170    5.5930   24.1140 C.2    49  ILE49       0.2592
     20  O         29.5330    5.1350   23.3200 O.2    49  ILE49      -0.2718
     21  CB        27.2460    7.4130   23.1260 C.3    49  ILE49       0.0266
     22  CG1       28.1670    7.5810   21.8860 C.3    49  ILE49       0.0019
     23  CG2       27.9700    8.3710   24.0890 C.3    49  ILE49       0.0020
     24  CD1       27.6430    6.9160   20.5470 C.3    49  ILE49       0.0001
     25  N         29.0680    5.7610   25.3860 N.am   50  ASP50      -0.1974
     26  CA        30.4220    5.4220   25.7550 C.3    50  ASP50       0.1709
     27  C         30.4640    3.9710   26.2370 C.2    50  ASP50       0.2293
     28  O         31.5610    3.4650   26.5550 O.2    50  ASP50      -0.2864
     29  CB        30.9400    6.3230   26.8970 C.3    50  ASP50       0.1436
     30  CG        30.8070    7.8250   26.7040 C.2    50  ASP50       0.3671
     31  OD1       30.7600    8.3170   25.5630 O.co2  50  ASP50      -0.2456
     32  OD2       30.7500    8.4980   27.7390 O.co2  50  ASP50      -0.2456
     33  N         23.7360   11.2230   16.2470 N.3    87  TYR87      -0.1241
     34  CA        23.9660   11.8020   17.6450 C.3    87  TYR87       0.1605
     35  C         25.2100   12.6690   17.7150 C.2    87  TYR87       0.2264
     36  O         26.2550   12.3070   17.0920 O.2    87  TYR87      -0.2867
     37  CB        24.1260   10.6130   18.7470 C.3    87  TYR87       0.0534
     38  CG        24.5490   11.0880   20.1280 C.ar   87  TYR87      -0.0201
     39  CD1       25.8470   10.8860   20.6020 C.ar   87  TYR87      -0.0009
     40  CD2       23.6590   11.7950   20.9360 C.ar   87  TYR87      -0.0009
     41  CE1       26.2480   11.3920   21.8460 C.ar   87  TYR87       0.0417
     42  CE2       24.0450   12.2980   22.1500 C.ar   87  TYR87       0.0417
     43  CZ        25.3240   12.1090   22.6040 C.ar   87  TYR87       0.1957
     44  OH        25.6900   12.7100   23.7850 O.3    87  TYR87      -0.2866
     45  N         23.2470   18.5380   23.4860 N.3    94  HIS94      -0.1241
     46  CA        23.4150   17.1990   22.7910 C.3    94  HIS94       0.1621
     47  C         22.4590   17.0540   21.5720 C.2    94  HIS94       0.2264
     48  O         21.4010   17.6820   21.5280 O.2    94  HIS94      -0.2867
     49  CB        23.1100   16.0480   23.7650 C.3    94  HIS94       0.0745
     50  CG        24.0940   15.9250   24.8890 C.ar   94  HIS94       0.0817
     51  ND1       24.5130   14.7050   25.3580 N.ar   94  HIS94      -0.2268
     52  CD2       24.7570   16.8610   25.5970 C.ar   94  HIS94       0.1154
     53  CE1       25.4200   14.8940   26.2980 C.ar   94  HIS94       0.1986
     54  NE2       25.5850   16.1910   26.4620 N.ar   94  HIS94      -0.2212
     55  N         19.3770   12.9510   40.9740 N.3   142  LYS142     -0.1301
     56  CA        19.7620   13.7140   42.2550 C.3   142  LYS142      0.1247
     57  C         18.6740   14.6780   42.8760 C.3   142  LYS142      0.2009
     58  O         17.8760   15.3430   42.1110 O.3   142  LYS142     -0.2188
     59  CB        21.0690   14.5270   42.0180 C.3   142  LYS142      0.0218
     60  CG        22.1840   13.5340   41.8690 C.3   142  LYS142      0.0031
     61  CD        23.4560   14.2000   41.4620 C.3   142  LYS142      0.0205
     62  CE        24.7110   13.2610   41.2820 C.3   142  LYS142      0.1093
     63  NZ        25.8630   14.1180   41.1720 N.3   142  LYS142     -0.1314
     64  N         21.8640   19.4120   43.6140 N.3   145  SER145     -0.1217
     65  CA        23.0500   19.3160   42.7340 C.3   145  SER145      0.1889
     66  C         24.2750   18.8920   43.5000 C.2   145  SER145      0.2288
     67  O         25.1770   18.3370   42.9320 O.2   145  SER145     -0.2866
     68  CB        23.2630   20.6820   41.9900 C.3   145  SER145      0.2089
     69  OG        21.9850   21.1120   41.4270 O.3   145  SER145     -0.2183
     70  N         13.0520   20.7380   39.2930 N.3   192  ASP192     -0.1225
     71  CA        13.7270   20.4610   37.9880 C.3   192  ASP192      0.1805
     72  C         14.1250   18.9830   37.8080 C.2   192  ASP192      0.2598
     73  O         14.1610   18.2320   38.8480 O.2   192  ASP192     -0.2718
     74  CB        14.9860   21.3030   37.8810 C.3   192  ASP192      0.1424
     75  CG        15.5270   21.5130   36.4590 C.2   192  ASP192      0.3668
     76  OD1       14.8190   21.2120   35.4370 O.co2 192  ASP192     -0.2456
     77  OD2       16.6950   21.9030   36.3650 O.co2 192  ASP192     -0.2456
     78  N         14.4340   18.4940   36.5860 N.am  193  SER193     -0.1938
     79  CA        15.1970   17.2320   36.4610 C.3   193  SER193      0.2055
     80  C         16.6870   17.4840   36.6800 C.2   193  SER193      0.2643
     81  O         17.0860   18.5860   36.8080 O.2   193  SER193     -0.2714
     82  CB        15.0210   16.5440   35.0840 C.3   193  SER193      0.2130
     83  OG        14.9900   17.4480   33.9930 O.3   193  SER193     -0.2179
     84  N         17.5460   16.4990   36.9180 N.am  194  CYS194     -0.1953
     85  CA        18.9260   16.6420   37.2840 C.3   194  CYS194      0.1843
     86  C         19.5860   15.4070   36.8480 C.2   194  CYS194      0.2625
     87  O         18.8890   14.4880   36.3790 O.2   194  CYS194     -0.2714
     88  CB        19.0750   16.8350   38.8250 C.3   194  CYS194      0.0997
     89  SG        20.7020   17.3800   39.3180 S.3   194  CYS194     -0.0797
     90  N         20.9250   15.3890   36.8520 N.am  195  GLN195     -0.1977
     91  CA        21.7660   14.1990   36.6390 C.3   195  GLN195      0.1601
     92  C         21.1840   12.9010   37.2550 C.2   195  GLN195      0.2287
     93  O         20.5940   12.9220   38.3650 O.2   195  GLN195     -0.2864
     94  CB        23.1250   14.4050   37.2420 C.3   195  GLN195      0.0394
     95  CG        24.0810   13.3410   36.8340 C.3   195  GLN195      0.0908
     96  CD        25.3000   13.3030   37.7080 C.2   195  GLN195      0.2608
     97  OE1       25.7110   14.2570   38.3230 O.2   195  GLN195     -0.2717
     98  NE2       25.7980   12.0890   37.9790 N.am  195  GLN195     -0.0878
     99  N         18.3200   11.5490   33.2530 N.3   198  SER198     -0.1217
    100  CA        18.4190   11.5560   31.7600 C.3   198  SER198      0.1889
    101  C         17.7880   10.2870   31.1660 C.2   198  SER198      0.2288
    102  O         17.5680    9.2990   31.8910 O.2   198  SER198     -0.2866
    103  CB        19.8750   11.5990   31.3070 C.3   198  SER198      0.2089
    104  OG        20.4930   12.8620   31.5630 O.3   198  SER198     -0.2183
    105  N         14.1990   13.2630   28.7220 N.3   216  VAL216     -0.1231
    106  CA        15.1720   14.1500   29.4340 C.3   216  VAL216      0.1692
    107  C         16.5780   14.1020   28.7510 C.2   216  VAL216      0.2593
    108  O         17.2360   13.0550   28.6570 O.2   216  VAL216     -0.2718
    109  CB        15.4100   13.7470   30.9610 C.3   216  VAL216      0.0266
    110  CG1       16.3610   14.7820   31.6240 C.3   216  VAL216      0.0020
    111  CG2       14.1300   13.8200   31.7550 C.3   216  VAL216      0.0020
    112  N         17.0670   15.2750   28.3570 N.am  217  SER217     -0.1938
    113  CA        18.2920   15.2760   27.6060 C.3   217  SER217      0.2055
    114  C         19.3390   16.0230   28.3000 C.2   217  SER217      0.2643
    115  O         20.3530   15.4430   28.5950 O.2   217  SER217     -0.2714
    116  CB        18.0740   15.8430   26.1500 C.3   217  SER217      0.2130
    117  OG        19.2430   15.6190   25.3240 O.3   217  SER217     -0.2179
    118  N         19.2770   17.3490   28.4740 N.am  218  TRP218     -0.1959
    119  CA        20.3760   18.1380   29.1100 C.3   218  TRP218      0.1771
    120  C         19.9280   19.4300   29.8460 C.2   218  TRP218      0.2620
    121  O         18.7720   19.8560   29.7350 O.2   218  TRP218     -0.2715
    122  CB        21.4530   18.5580   28.0830 C.3   218  TRP218      0.0590
    123  CG        20.9570   19.3770   26.8390 C.ar  218  TRP218      0.0006
    124  CD1       20.4290   18.8790   25.6370 C.ar  218  TRP218      0.0946
    125  CD2       21.0660   20.7780   26.6540 C.ar  218  TRP218      0.0152
    126  NE1       20.2360   19.8830   24.7630 N.ar  218  TRP218     -0.2442
    127  CE2       20.6250   21.0660   25.3330 C.ar  218  TRP218      0.0810
    128  CE3       21.5080   21.8330   27.4660 C.ar  218  TRP218      0.0012
    129  CZ2       20.6260   22.3720   24.8080 C.ar  218  TRP218      0.0191
    130  CZ3       21.5100   23.1340   26.9370 C.ar  218  TRP218      0.0001
    131  CH2       21.0730   23.3850   25.6220 C.ar  218  TRP218      0.0015
    132  N         20.8600   20.1110   30.5040 N.am  219  GLY219     -0.1940
    133  CA        20.5570   21.3910   31.1300 C.3   219  GLY219      0.2014
    134  C         21.7490   21.9270   31.8830 C.2   219  GLY219      0.2639
    135  O         22.6180   21.1680   32.2300 O.2   219  GLY219     -0.2714
    136  N         21.8770   23.2460   31.9590 N.am  220  ARG220     -0.1963
    137  CA        22.9490   23.8530   32.7040 C.3   220  ARG220      0.1729
    138  C         22.6470   23.8920   34.2260 C.2   220  ARG220      0.2617
    139  O         21.6990   24.6000   34.6960 O.2   220  ARG220     -0.2715
    140  CB        23.2590   25.3060   32.1660 C.3   220  ARG220      0.0348
    141  CG        24.2200   26.2690   33.0510 C.3   220  ARG220      0.0492
    142  CD        25.7380   26.0200   33.1280 C.3   220  ARG220      0.2205
    143  NE        26.0550   24.7290   33.7620 N.pl3 220  ARG220     -0.0865
    144  CZ        26.3420   24.5160   35.0500 C.cat 220  ARG220      0.5346
    145  NH1       26.4210   25.5610   35.8640 N.pl3 220  ARG220      0.1354
    146  NH2       26.4240   23.2890   35.5690 N.pl3 220  ARG220      0.1354
    147  N         23.3300   23.1470   35.0820 N.am  221  GLY221     -0.1940
    148  CA        22.9500   23.1290   36.4910 C.3   221  GLY221      0.2014
    149  C         21.6800   22.3250   36.6670 C.2   221  GLY221      0.2639
    150  O         21.3480   21.5240   35.8320 O.2   221  GLY221     -0.2714
    151  N         21.0390   22.4390   37.8280 N.am  222  CYS222     -0.1967
    152  CA        19.7140   21.8770   38.1130 C.3   222  CYS222      0.1712
    153  C         18.9170   22.8650   38.9840 C.2   222  CYS222      0.2296
    154  O         19.3520   23.2140   40.0660 O.2   222  CYS222     -0.2864
    155  CB        19.8400   20.5130   38.8910 C.3   222  CYS222      0.0983
    156  SG        20.8340   19.2290   37.9880 S.3   222  CYS222     -0.0798
    157  N         17.9180   28.7990   33.3890 N.3   227  LYS227     -0.1231
    158  CA        18.5140   27.6260   32.7770 C.3   227  LYS227      0.1678
    159  C         17.5300   26.4440   32.7520 C.2   227  LYS227      0.2434
    160  O         17.5190   25.6120   33.6640 O.2   227  LYS227     -0.2733
    161  CB        19.8130   27.2130   33.5500 C.3   227  LYS227      0.0284
    162  CG        20.9410   28.2900   33.6110 C.3   227  LYS227      0.0035
    163  CD        21.4310   28.7010   32.1370 C.3   227  LYS227      0.0206
    164  CE        21.9190   30.2060   32.0950 C.3   227  LYS227      0.1093
    165  NZ        22.6370   30.4130   30.8790 N.3   227  LYS227     -0.1314
    166  N         16.6270   26.4300   31.8040 N.am  228  PRO228     -0.2718
    167  CA        15.7020   25.2690   31.7190 C.3   228  PRO228      0.1535
    168  C         16.1860   23.8110   31.5200 C.2   228  PRO228      0.2599
    169  O         17.3450   23.5770   31.1710 O.2   228  PRO228     -0.2715
    170  CB        14.7090   25.7310   30.6370 C.3   228  PRO228      0.0310
    171  CG        14.7410   27.2310   30.7660 C.3   228  PRO228      0.0237
    172  CD        16.1870   27.5190   30.9180 C.3   228  PRO228      0.0939
    173  N         15.4220   22.7830   31.8880 N.am  229  GLY229     -0.1941
    174  CA        15.6840   21.4630   31.3640 C.3   229  GLY229      0.2014
    175  C         15.5000   21.5070   29.8410 C.2   229  GLY229      0.2638
    176  O         14.6410   22.2740   29.3080 O.2   229  GLY229     -0.2714
    177  N         16.3230   20.7680   29.1050 N.am  230  VAL230     -0.1977
    178  CA        16.1160   20.7290   27.6780 C.3   230  VAL230      0.1596
    179  C         15.8470   19.2860   27.3450 C.2   230  VAL230      0.2287
    180  O         16.4370   18.3740   27.9440 O.2   230  VAL230     -0.2864
    181  CB        17.3370   21.3240   26.9110 C.3   230  VAL230      0.0276
    182  CG1       17.0340   21.3780   25.4060 C.3   230  VAL230      0.0022
    183  CG2       17.7090   22.7340   27.4820 C.3   230  VAL230      0.0022
@<TRIPOS>BOND
     1    33    34    1
     2    36    35    2
     3    34    35    1
     4    34    37    1
     5    37    38    1
     6    38    39   ar
     7    38    40   ar
     8    24    22    1
     9    39    41   ar
    10    40    42   ar
    11    48    47    2
    12    47    46    1
    13    41    43   ar
    14    22    21    1
    15    42    43   ar
    16    43    44    1
    17    46    45    1
    18    46    49    1
    19    21    18    1
    20    21    23    1
    21    20    19    2
    22    18    19    1
    23    18    17    1
    24    49    50    1
    25    19    25   am
    26     1     2    1
    27   126   127   ar
    28   126   124   ar
    29   129   127   ar
    30   129   131   ar
    31    50    51   ar
    32    50    52   ar
    33   117   116    1
    34   127   125   ar
    35    51    53   ar
    36    25    26    1
    37   182   181    1
    38    31    30   ar
    39    52    54   ar
    40   131   130   ar
    41   124   123   ar
    42     2     5    1
    43     2     3    1
    44    26    27    1
    45    26    29    1
    46     5     6    1
    47   116   113    1
    48    27    28    2
    49    53    54   ar
    50   125   123   ar
    51   125   128   ar
    52    30    29    1
    53    30    32   ar
    54   123   122    1
    55     3    11   am
    56     3     4    2
    57   181   183    1
    58   181   178    1
    59   130   128   ar
    60    11    12    1
    61   179   178    1
    62   179   180    2
    63     6     7   ar
    64     6     8   ar
    65     7     9   ar
    66   113   114    1
    67   113   112    1
    68   178   177    1
    69    13    12    1
    70    13    14    2
    71   122   119    1
    72   114   118   am
    73   114   115    2
    74   112   107   am
    75    12    15    1
    76   118   119    1
    77   108   107    2
    78     9    10   ar
    79     8    10   ar
    80   105   106    1
    81   107   106    1
    82    15    16    1
    83   177   175   am
    84   119   120    1
    85   176   175    2
    86   106   109    1
    87   121   120    2
    88   175   174    1
    89   120   132   am
    90   132   133    1
    91   170   171    1
    92   170   167    1
    93   171   172    1
    94   165   164    1
    95   172   166    1
    96   109   110    1
    97   109   111    1
    98   133   134    1
    99   101   100    1
   100   101   102    2
   101   169   168    2
   102   103   104    1
   103   103   100    1
   104   174   173    1
   105   168   167    1
   106   168   173   am
   107   167   166    1
   108   100    99    1
   109   166   159   am
   110   134   136   am
   111   134   135    2
   112   136   137    1
   113   164   163    1
   114   163   162    1
   115   140   137    1
   116   140   141    1
   117   137   138    1
   118   159   158    1
   119   159   160    2
   120   158   157    1
   121   158   161    1
   122   141   142    1
   123   142   143    1
   124   161   162    1
   125   143   144    2
   126    83    82    1
   127   138   139    2
   128   138   147   am
   129   144   146    1
   130   144   145    1
   131   147   148    1
   132    82    79    1
   133    76    75   ar
   134   150   149    2
   135    77    75   ar
   136    87    86    2
   137    75    74    1
   138    79    78    1
   139    79    80    1
   140   148   149    1
   141    78    72   am
   142    91    90    1
   143    91    94    1
   144    91    92    1
   145   149   151   am
   146    80    81    2
   147    80    84   am
   148    95    94    1
   149    95    96    1
   150    86    90   am
   151    86    85    1
   152    84    85    1
   153    92    93    2
   154    85    88    1
   155    96    98   am
   156    96    97    2
   157    72    71    1
   158    72    73    2
   159   151   152    1
   160    74    71    1
   161    71    70    1
   162   156   155    1
   163   156    89    1
   164   152   155    1
   165   152   153    1
   166    88    89    1
   167   153   154    2
   168    55    56    1
   169    63    62    1
   170    62    61    1
   171    69    68    1
   172    61    60    1
   173    60    59    1
   174    68    65    1
   175    59    56    1
   176    58    57    1
   177    56    57    1
   178    65    66    1
   179    65    64    1
   180    67    66    2
