@<TRIPOS>MOLECULE
tmp/1sqbC02.pdb
 223 215 0 0 0
SMALL
GASTEIGER

@<TRIPOS>ATOM
      1  N         72.5880   59.5560  154.9120 N.3   120  LEU120     -0.1245
      2  CA        73.5540   59.3300  156.0100 C.3   120  LEU120      0.1561
      3  C         73.8250   60.6060  156.8140 C.2   120  LEU120      0.2260
      4  O         73.8200   60.5790  158.0580 O.2   120  LEU120     -0.2867
      5  CB        74.8910   58.7630  155.4750 C.3   120  LEU120      0.0270
      6  CG        74.9590   57.3690  154.8250 C.3   120  LEU120      0.0019
      7  CD1       76.2240   57.2440  154.0180 C.3   120  LEU120      0.0001
      8  CD2       74.8970   56.2600  155.8610 C.3   120  LEU120      0.0001
      9  N         70.7840   61.6080  158.8950 N.3   123  MET123     -0.1245
     10  CA        70.7530   60.6270  159.9910 C.3   123  MET123      0.1570
     11  C         71.7390   61.0140  161.0790 C.2   123  MET123      0.2261
     12  O         71.3250   61.2560  162.2220 O.2   123  MET123     -0.2867
     13  CB        71.0590   59.2290  159.4770 C.3   123  MET123      0.0387
     14  CG        69.8920   58.3500  159.4380 C.3   123  MET123      0.0595
     15  SD        70.1080   56.9970  158.3410 S.3   123  MET123     -0.1393
     16  CE        68.3800   56.4780  158.1500 C.3   123  MET123      0.0692
     17  N         70.4740   64.1180  163.0250 N.3   126  ALA126     -0.1231
     18  CA        69.3620   63.8520  163.9530 C.3   126  ALA126      0.1694
     19  C         69.8110   63.1080  165.2110 C.2   126  ALA126      0.2592
     20  O         69.3960   63.4590  166.3300 O.2   126  ALA126     -0.2718
     21  CB        68.2600   63.1070  163.2530 C.3   126  ALA126      0.0304
     22  N         70.7150   62.1360  165.0180 N.am  127  PHE127     -0.1976
     23  CA        71.3310   61.3700  166.1060 C.3   127  PHE127      0.1639
     24  C         72.0300   62.3010  167.1010 C.2   127  PHE127      0.2290
     25  O         71.7680   62.2230  168.3030 O.2   127  PHE127     -0.2864
     26  CB        72.3150   60.3140  165.5430 C.3   127  PHE127      0.0560
     27  CG        73.1750   59.6500  166.5940 C.ar  127  PHE127     -0.0200
     28  CD1       72.6280   58.6620  167.4470 C.ar  127  PHE127     -0.0042
     29  CD2       74.5370   60.0140  166.7440 C.ar  127  PHE127     -0.0042
     30  CE1       73.4030   58.0750  168.4730 C.ar  127  PHE127     -0.0003
     31  CE2       75.3310   59.4400  167.7730 C.ar  127  PHE127     -0.0003
     32  CZ        74.7670   58.4490  168.6310 C.ar  127  PHE127     -0.0000
     33  N         69.5200   64.8120  168.9700 N.3   130  TYR130     -0.1227
     34  CA        68.7890   64.1860  170.0680 C.3   130  TYR130      0.1736
     35  C         69.5190   64.2310  171.4200 C.2   130  TYR130      0.2595
     36  O         68.8750   64.3670  172.4570 O.2   130  TYR130     -0.2718
     37  CB        68.4300   62.7540  169.6990 C.3   130  TYR130      0.0548
     38  CG        67.2440   62.1950  170.4510 C.ar  130  TYR130     -0.0200
     39  CD1       65.9290   62.6450  170.1710 C.ar  130  TYR130     -0.0009
     40  CD2       67.4190   61.1940  171.4380 C.ar  130  TYR130     -0.0009
     41  CE1       64.8260   62.1460  170.8850 C.ar  130  TYR130      0.0417
     42  CE2       66.3090   60.6390  172.1270 C.ar  130  TYR130      0.0417
     43  CZ        65.0130   61.1150  171.8410 C.ar  130  TYR130      0.1957
     44  OH        63.9260   60.6000  172.5220 O.3   130  TYR130     -0.2866
     45  N         70.8580   64.1510  171.3850 N.am  131  VAL131     -0.1980
     46  CA        71.7270   64.2470  172.5810 C.3   131  VAL131      0.1595
     47  C         71.6030   65.6270  173.2720 C.2   131  VAL131      0.2287
     48  O         71.6170   65.7050  174.5080 O.2   131  VAL131     -0.2864
     49  CB        73.2340   63.9590  172.2230 C.3   131  VAL131      0.0276
     50  CG1       74.1410   64.0270  173.4420 C.3   131  VAL131      0.0022
     51  CG2       73.3820   62.6300  171.5980 C.3   131  VAL131      0.0022
     52  N         66.8880   59.6940  177.6390 N.3   137  MET137     -0.1230
     53  CA        67.0030   59.0610  176.3230 C.3   137  MET137      0.1702
     54  C         68.1250   59.6170  175.4690 C.2   137  MET137      0.2593
     55  O         68.7650   58.8690  174.7260 O.2   137  MET137     -0.2718
     56  CB        65.6700   59.0300  175.5600 C.3   137  MET137      0.0401
     57  CG        65.4880   57.7770  174.6950 C.3   137  MET137      0.0596
     58  SD        65.6460   56.1990  175.6280 S.3   137  MET137     -0.1393
     59  CE        67.3170   55.7030  175.2120 C.3   137  MET137      0.0692
     60  N         68.3910   60.9150  175.6400 N.am  138  SER138     -0.1952
     61  CA        69.4820   61.6290  174.9680 C.3   138  SER138      0.1924
     62  C         70.8500   61.0130  175.2980 C.2   138  SER138      0.2314
     63  O         71.6200   60.6790  174.3910 O.2   138  SER138     -0.2863
     64  CB        69.4660   63.1060  175.3720 C.3   138  SER138      0.2116
     65  OG        68.2560   63.7430  174.9910 O.3   138  SER138     -0.2180
     66  N         70.6580   56.7970  174.6900 N.3   141  GLY141     -0.1210
     67  CA        70.7290   56.5540  173.2630 C.3   141  GLY141      0.1956
     68  C         72.1600   56.7090  172.7630 C.2   141  GLY141      0.2611
     69  O         72.6630   55.8270  172.0600 O.2   141  GLY141     -0.2717
     70  N         72.8440   57.7580  173.2500 N.am  142  ALA142     -0.1979
     71  CA        74.2170   58.0840  172.8490 C.3   142  ALA142      0.1597
     72  C         75.2150   57.0160  173.2670 C.2   142  ALA142      0.2287
     73  O         75.9640   56.5150  172.4210 O.2   142  ALA142     -0.2864
     74  CB        74.6250   59.4570  173.3790 C.3   142  ALA142      0.0319
     75  N         74.5210   53.8660  174.0990 N.3   144  VAL144     -0.1231
     76  CA        74.1890   52.5740  173.5110 C.3   144  VAL144      0.1692
     77  C         74.5980   52.4140  172.0320 C.2   144  VAL144      0.2591
     78  O         74.7580   51.2810  171.5460 O.2   144  VAL144     -0.2718
     79  CB        72.7040   52.1450  173.8050 C.3   144  VAL144      0.0266
     80  CG1       71.7310   52.5750  172.6860 C.3   144  VAL144      0.0020
     81  CG2       72.6210   50.6650  174.0790 C.3   144  VAL144      0.0020
     82  N         74.8080   53.5450  171.3530 N.am  145  ILE145     -0.1980
     83  CA        75.1340   53.5670  169.9230 C.3   145  ILE145      0.1595
     84  C         76.6230   53.7860  169.6570 C.2   145  ILE145      0.2287
     85  O         77.2110   53.0660  168.8440 O.2   145  ILE145     -0.2864
     86  CB        74.2180   54.5950  169.1520 C.3   145  ILE145      0.0276
     87  CG1       72.7280   54.1940  169.2420 C.3   145  ILE145      0.0022
     88  CG2       74.6800   54.8180  167.6780 C.3   145  ILE145      0.0022
     89  CD1       72.3180   52.7920  168.6250 C.3   145  ILE145      0.0001
     90  N         79.1910   50.9020  170.0900 N.3   148  LEU148     -0.1245
     91  CA        79.2750   49.9310  168.9980 C.3   148  LEU148      0.1561
     92  C         80.6090   49.9900  168.2740 C.2   148  LEU148      0.2260
     93  O         81.1520   48.9500  167.8770 O.2   148  LEU148     -0.2867
     94  CB        78.1250   50.1140  168.0050 C.3   148  LEU148      0.0270
     95  CG        76.7160   49.7190  168.4570 C.3   148  LEU148      0.0019
     96  CD1       75.6850   50.2140  167.4660 C.3   148  LEU148      0.0001
     97  CD2       76.5980   48.2020  168.6620 C.3   148  LEU148      0.0001
     98  N         65.0690   51.2760  176.1450 N.3   267  ILE267     -0.1231
     99  CA        65.9770   52.1490  175.4010 C.3   267  ILE267      0.1692
    100  C         65.5420   52.1270  173.9250 C.2   267  ILE267      0.2592
    101  O         65.8320   51.1690  173.1930 O.2   267  ILE267     -0.2718
    102  CB        67.5050   51.7440  175.6710 C.3   267  ILE267      0.0266
    103  CG1       67.9540   52.2800  177.0300 C.3   267  ILE267      0.0019
    104  CG2       68.4660   52.3050  174.6200 C.3   267  ILE267      0.0020
    105  CD1       67.9810   51.2380  178.1250 C.3   267  ILE267      0.0001
    106  N         64.6660   53.0760  173.5750 N.am  268  LYS268     -0.1966
    107  CA        64.1340   53.1730  172.2130 C.3   268  LYS268      0.1713
    108  C         64.3420   54.5140  171.4620 C.2   268  LYS268      0.2458
    109  O         64.1830   55.6090  172.0460 O.2   268  LYS268     -0.2730
    110  CB        62.6810   52.6380  172.1040 C.3   268  LYS268      0.0311
    111  CG        61.5610   53.5760  172.5720 C.3   268  LYS268      0.0038
    112  CD        60.4290   52.7700  173.1890 C.3   268  LYS268      0.0206
    113  CE        59.1140   52.9240  172.4370 C.3   268  LYS268      0.1093
    114  NZ        58.0020   52.2580  173.1900 N.3   268  LYS268     -0.1314
    115  N         64.7720   54.4180  170.1940 N.am  269  PRO269     -0.2716
    116  CA        64.8280   55.5770  169.2990 C.3   269  PRO269      0.1536
    117  C         63.4510   56.1760  168.9880 C.2   269  PRO269      0.2598
    118  O         62.3870   55.5510  169.2940 O.2   269  PRO269     -0.2715
    119  CB        65.4040   54.9790  168.0110 C.3   269  PRO269      0.0310
    120  CG        66.1200   53.7860  168.4150 C.3   269  PRO269      0.0237
    121  CD        65.3880   53.2280  169.5670 C.3   269  PRO269      0.0939
    122  N         63.4720   57.3850  168.4030 N.am  270  GLU270     -0.1978
    123  CA        62.3170   57.9350  167.6740 C.3   270  GLU270      0.1602
    124  C         62.0640   56.9930  166.4790 C.2   270  GLU270      0.2287
    125  O         63.0040   56.3380  165.9770 O.2   270  GLU270     -0.2864
    126  CB        62.5900   59.3640  167.1630 C.3   270  GLU270      0.0415
    127  CG        63.0780   60.3670  168.2120 C.3   270  GLU270      0.1163
    128  CD        61.9490   61.1410  168.8780 C.2   270  GLU270      0.3649
    129  OE1       61.0400   61.6240  168.1670 O.co2 270  GLU270     -0.2457
    130  OE2       61.9790   61.2930  170.1140 O.co2 270  GLU270     -0.2457
    131  N         61.9800   56.8630  163.3700 N.3   272  TYR272     -0.1227
    132  CA        62.8420   56.8720  162.1920 C.3   272  TYR272      0.1736
    133  C         64.1530   56.0680  162.2630 C.2   272  TYR272      0.2595
    134  O         64.7940   55.8330  161.2320 O.2   272  TYR272     -0.2718
    135  CB        63.0680   58.2880  161.6760 C.3   272  TYR272      0.0548
    136  CG        63.4450   59.3490  162.7070 C.ar  272  TYR272     -0.0200
    137  CD1       64.8030   59.5850  163.0400 C.ar  272  TYR272     -0.0009
    138  CD2       62.4730   60.2490  163.1990 C.ar  272  TYR272     -0.0009
    139  CE1       65.1730   60.6400  163.9140 C.ar  272  TYR272      0.0417
    140  CE2       62.8310   61.3190  164.0660 C.ar  272  TYR272      0.0417
    141  CZ        64.1800   61.5050  164.4200 C.ar  272  TYR272      0.1957
    142  OH        64.5260   62.5280  165.2850 O.3   272  TYR272     -0.2866
    143  N         64.5190   55.6170  163.4630 N.am  273  PHE273     -0.1976
    144  CA        65.7010   54.7670  163.6620 C.3   273  PHE273      0.1639
    145  C         65.3200   53.3270  164.1380 C.2   273  PHE273      0.2290
    146  O         66.1850   52.4210  164.1770 O.2   273  PHE273     -0.2864
    147  CB        66.6580   55.4210  164.6780 C.3   273  PHE273      0.0560
    148  CG        67.4910   56.5970  164.1310 C.ar  273  PHE273     -0.0200
    149  CD1       67.3050   57.1190  162.8300 C.ar  273  PHE273     -0.0042
    150  CD2       68.4680   57.1840  164.9490 C.ar  273  PHE273     -0.0042
    151  CE1       68.0400   58.2180  162.3840 C.ar  273  PHE273     -0.0003
    152  CE2       69.2420   58.2590  164.5040 C.ar  273  PHE273     -0.0003
    153  CZ        69.0380   58.7760  163.2060 C.ar  273  PHE273     -0.0000
    154  N         63.5920   50.7390  162.8250 N.3   275  PHE275     -0.1227
    155  CA        63.8670   49.6460  161.8720 C.3   275  PHE275      0.1736
    156  C         65.3340   49.1470  161.9450 C.2   275  PHE275      0.2595
    157  O         65.5820   47.9260  162.0420 O.2   275  PHE275     -0.2718
    158  CB        63.4370   50.0330  160.4250 C.3   275  PHE275      0.0547
    159  CG        64.4770   50.8380  159.6520 C.ar  275  PHE275     -0.0202
    160  CD1       64.5140   52.2450  159.7530 C.ar  275  PHE275     -0.0042
    161  CD2       65.4350   50.1850  158.8240 C.ar  275  PHE275     -0.0042
    162  CE1       65.5010   52.9980  159.0590 C.ar  275  PHE275     -0.0003
    163  CE2       66.4240   50.9180  158.1260 C.ar  275  PHE275     -0.0003
    164  CZ        66.4640   52.3270  158.2490 C.ar  275  PHE275     -0.0000
    165  N         66.2670   50.1160  162.0300 N.am  276  ALA276     -0.1966
    166  CA        67.7170   49.8690  162.0790 C.3   276  ALA276      0.1728
    167  C         68.1620   49.4270  163.4630 C.2   276  ALA276      0.2616
    168  O         69.1070   48.6320  163.5920 O.2   276  ALA276     -0.2715
    169  CB        68.4830   51.1020  161.6420 C.3   276  ALA276      0.0334
    170  N         67.4780   49.9400  164.4950 N.am  277  TYR277     -0.1974
    171  CA        67.7070   49.5230  165.8800 C.3   277  TYR277      0.1639
    172  C         67.3550   48.0360  166.0750 C.2   277  TYR277      0.2290
    173  O         68.1130   47.2950  166.7270 O.2   277  TYR277     -0.2864
    174  CB        66.9240   50.4150  166.8550 C.3   277  TYR277      0.0560
    175  CG        67.3150   50.2470  168.3210 C.ar  277  TYR277     -0.0198
    176  CD1       68.5760   50.7020  168.8040 C.ar  277  TYR277     -0.0009
    177  CD2       66.4180   49.6690  169.2440 C.ar  277  TYR277     -0.0009
    178  CE1       68.9420   50.5390  170.1720 C.ar  277  TYR277      0.0417
    179  CE2       66.7610   49.5330  170.6110 C.ar  277  TYR277      0.0417
    180  CZ        68.0260   49.9560  171.0610 C.ar  277  TYR277      0.1957
    181  OH        68.3680   49.8030  172.3820 O.3   277  TYR277     -0.2866
    182  N         70.0410   45.6340  164.5290 N.3   280  LEU280     -0.1245
    183  CA        71.2210   45.5990  165.3910 C.3   280  LEU280      0.1561
    184  C         71.1340   44.5560  166.5270 C.2   280  LEU280      0.2260
    185  O         72.0660   43.7600  166.7140 O.2   280  LEU280     -0.2867
    186  CB        71.5360   47.0120  165.9280 C.3   280  LEU280      0.0270
    187  CG        72.4080   47.1750  167.1830 C.3   280  LEU280      0.0019
    188  CD1       73.8680   46.8530  166.9000 C.3   280  LEU280      0.0001
    189  CD2       72.2480   48.5490  167.7960 C.3   280  LEU280      0.0001
    190  N         77.1980   46.0160  164.0320 N.3   290  VAL290     -0.1245
    191  CA        77.5790   47.2590  163.3300 C.3   290  VAL290      0.1561
    192  C         77.7530   47.0720  161.8220 C.2   290  VAL290      0.2260
    193  O         77.3900   47.9660  161.0460 O.2   290  VAL290     -0.2867
    194  CB        78.8660   47.9560  163.9090 C.3   290  VAL290      0.0252
    195  CG1       78.5700   49.4070  164.2660 C.3   290  VAL290      0.0019
    196  CG2       79.4560   47.2040  165.1040 C.3   290  VAL290      0.0019
    197  N         74.4840   46.8940  160.4870 N.3   293  LEU293     -0.1231
    198  CA        73.9050   48.2190  160.7060 C.3   293  LEU293      0.1693
    199  C         74.3130   49.2450  159.6460 C.2   293  LEU293      0.2591
    200  O         73.5080   50.1200  159.2700 O.2   293  LEU293     -0.2718
    201  CB        74.2690   48.7250  162.0970 C.3   293  LEU293      0.0284
    202  CG        73.4090   49.7540  162.8210 C.3   293  LEU293      0.0019
    203  CD1       71.8990   49.6240  162.5830 C.3   293  LEU293      0.0001
    204  CD2       73.7280   49.7000  164.2990 C.3   293  LEU293      0.0001
    205  N         75.5890   49.1990  159.2560 N.am  294  ALA294     -0.1980
    206  CA        76.1050   50.0290  158.1820 C.3   294  ALA294      0.1597
    207  C         75.5120   49.5440  156.8560 C.2   294  ALA294      0.2287
    208  O         74.9370   50.3540  156.1090 O.2   294  ALA294     -0.2864
    209  CB        77.6470   50.0070  158.1540 C.3   294  ALA294      0.0319
    210  N         72.7550   48.2320  156.4040 N.3   296  SER296     -0.1202
    211  CA        71.3250   48.5980  156.4240 C.3   296  SER296      0.2020
    212  C         70.9780   49.8190  155.5340 C.2   296  SER296      0.2618
    213  O         69.8540   49.9060  155.0050 O.2   296  SER296     -0.2717
    214  CB        70.8640   48.8440  157.8660 C.3   296  SER296      0.2103
    215  OG        69.5310   49.3280  157.9210 O.3   296  SER296     -0.2182
    216  N         71.9210   50.7640  155.4240 N.am  297  ILE297     -0.1979
    217  CA        71.7450   51.9680  154.5980 C.3   297  ILE297      0.1595
    218  C         72.6390   51.9270  153.3480 C.2   297  ILE297      0.2287
    219  O         72.1440   52.1140  152.2220 O.2   297  ILE297     -0.2864
    220  CB        71.9500   53.2880  155.4460 C.3   297  ILE297      0.0276
    221  CG1       70.9550   53.3690  156.6370 C.3   297  ILE297      0.0022
    222  CG2       71.8810   54.5500  154.5670 C.3   297  ILE297      0.0022
    223  CD1       69.4130   53.3280  156.2850 C.3   297  ILE297      0.0001
@<TRIPOS>BOND
     1   219   218    2
     2   218   217    1
     3     7     6    1
     4   222   220    1
     5   217   216    1
     6   217   220    1
     7     6     5    1
     8     6     8    1
     9     1     2    1
    10   213   212    2
    11   216   212   am
    12   220   221    1
    13     5     2    1
    14   212   211    1
    15     2     3    1
    16   208   207    2
    17   223   221    1
    18   210   211    1
    19   211   214    1
    20     3     4    2
    21   207   206    1
    22   214   215    1
    23   163   164   ar
    24   163   161   ar
    25    16    15    1
    26   209   206    1
    27   206   205    1
    28   164   162   ar
    29    15    14    1
    30   161   159   ar
    31     9    10    1
    32   162   160   ar
    33   205   199   am
    34   200   199    2
    35    14    13    1
    36    13    10    1
    37   199   198    1
    38   159   160   ar
    39   159   158    1
    40    10    11    1
    41   158   155    1
    42   197   198    1
    43   198   201    1
    44   193   192    2
    45    11    12    2
    46   134   133    2
    47   169   166    1
    48   135   132    1
    49   135   136    1
    50   192   191    1
    51   155   156    1
    52   155   154    1
    53   156   165   am
    54   156   157    2
    55   165   166    1
    56   166   167    1
    57   201   202    1
    58   132   133    1
    59   132   131    1
    60   133   143   am
    61   151   149   ar
    62   151   153   ar
    63   203   202    1
    64   136   137   ar
    65   136   138   ar
    66   202   204    1
    67   149   148   ar
    68    17    18    1
    69   137   139   ar
    70   138   140   ar
    71   153   152   ar
    72    21    18    1
    73   191   194    1
    74   191   190    1
    75   167   168    2
    76   167   170   am
    77   143   144    1
    78   144   145    1
    79   144   147    1
    80   194   195    1
    81   194   196    1
    82   139   141   ar
    83    18    19    1
    84   140   141   ar
    85   148   147    1
    86   148   150   ar
    87   145   146    2
    88   141   142    1
    89   170   171    1
    90   152   150   ar
    91   182   183    1
    92    22    19   am
    93    22    23    1
    94    19    20    2
    95   183   186    1
    96   183   184    1
    97    26    23    1
    98    26    27    1
    99   171   172    1
   100   171   174    1
   101   186   187    1
   102   125   124    2
   103   172   173    2
   104    23    24    1
   105   124   123    1
   106   184   185    2
   107    27    29   ar
   108    27    28   ar
   109    29    31   ar
   110   174   175    1
   111   188   187    1
   112    24    25    2
   113   126   123    1
   114   126   127    1
   115   187   189    1
   116    28    30   ar
   117    96    95    1
   118   123   122    1
   119    88    86    1
   120    31    32   ar
   121    93    92    2
   122    94    95    1
   123    94    91    1
   124   119   120    1
   125   119   116    1
   126   129   128   ar
   127   127   128    1
   128    92    91    1
   129   175   176   ar
   130   175   177   ar
   131   122   117   am
   132   120   121    1
   133    95    97    1
   134    30    32   ar
   135    89    87    1
   136   176   178   ar
   137    85    84    2
   138   128   130   ar
   139    33    34    1
   140   117   118    2
   141   117   116    1
   142    91    90    1
   143    86    87    1
   144    86    83    1
   145   177   179   ar
   146   116   115    1
   147   121   115    1
   148    84    83    1
   149    37    34    1
   150    37    38    1
   151    83    82    1
   152    34    35    1
   153    39    38   ar
   154    39    41   ar
   155   178   180   ar
   156   115   108   am
   157    38    40   ar
   158   179   180   ar
   159    41    43   ar
   160   180   181    1
   161    82    77   am
   162    45    35   am
   163    45    46    1
   164    35    36    2
   165    40    42   ar
   166   108   109    2
   167   108   107    1
   168    78    77    2
   169    51    49    1
   170    43    42   ar
   171    43    44    1
   172    77    76    1
   173    69    68    2
   174   110   107    1
   175   110   111    1
   176   107   106    1
   177    49    46    1
   178    49    50    1
   179    73    72    2
   180   113   112    1
   181   113   114    1
   182   111   112    1
   183    46    47    1
   184    80    79    1
   185    68    70   am
   186    68    67    1
   187    71    70    1
   188    71    72    1
   189    71    74    1
   190   101   100    2
   191    67    66    1
   192    47    48    2
   193    76    79    1
   194    76    75    1
   195   106   100   am
   196    79    81    1
   197   100    99    1
   198    63    62    2
   199   104   102    1
   200    57    56    1
   201    57    58    1
   202    55    54    2
   203    61    62    1
   204    61    64    1
   205    61    60    1
   206    65    64    1
   207    59    58    1
   208    99   102    1
   209    99    98    1
   210    54    60   am
   211    54    53    1
   212    56    53    1
   213   102   103    1
   214    53    52    1
   215   103   105    1
