@<TRIPOS>MOLECULE
tmp/1sqcA00.pdb
 226 222 0 0 0
SMALL
GASTEIGER

@<TRIPOS>ATOM
      1  N         95.0590   40.2630   26.6510 N.3    27  LEU27      -0.1245
      2  CA        94.9530   38.8570   26.3020 C.3    27  LEU27       0.1561
      3  C         93.9580   38.1600   27.2320 C.2    27  LEU27       0.2260
      4  O         94.1550   38.1050   28.4500 O.2    27  LEU27      -0.2867
      5  CB        96.3280   38.1800   26.3590 C.3    27  LEU27       0.0270
      6  CG        96.4630   36.7950   25.6990 C.3    27  LEU27       0.0019
      7  CD1       96.0220   36.8330   24.2270 C.3    27  LEU27       0.0001
      8  CD2       97.9060   36.3050   25.8100 C.3    27  LEU27       0.0001
      9  N         93.4830   32.2190   36.3250 N.3    33  MET33      -0.1245
     10  CA        94.5400   33.2220   36.4820 C.3    33  MET33       0.1570
     11  C         94.3410   33.9920   37.7860 C.2    33  MET33       0.2261
     12  O         95.2250   34.0160   38.6560 O.2    33  MET33      -0.2867
     13  CB        94.5070   34.2180   35.3220 C.3    33  MET33       0.0387
     14  CG        94.7760   33.5990   33.9780 C.3    33  MET33       0.0595
     15  SD        96.3950   32.7940   33.9320 S.3    33  MET33      -0.1393
     16  CE        95.9330   31.0550   33.9250 C.3    33  MET33       0.0692
     17  N        107.6600   27.0610   28.3070 N.3   160  TRP160     -0.1241
     18  CA       106.6340   27.2110   29.3250 C.3   160  TRP160      0.1605
     19  C        106.7070   26.1770   30.4360 C.2   160  TRP160      0.2264
     20  O        106.6970   26.5220   31.6200 O.2   160  TRP160     -0.2867
     21  CB       105.2510   27.1910   28.6700 C.3   160  TRP160      0.0550
     22  CG       104.9930   26.0050   27.7860 C.ar  160  TRP160      0.0003
     23  CD1      104.4920   24.7940   28.1700 C.ar  160  TRP160      0.0946
     24  CD2      105.2080   25.9190   26.3680 C.ar  160  TRP160      0.0152
     25  NE1      104.3820   23.9600   27.0820 N.ar  160  TRP160     -0.2442
     26  CE2      104.8140   24.6230   25.9640 C.ar  160  TRP160      0.0810
     27  CE3      105.6970   26.8110   25.4000 C.ar  160  TRP160      0.0012
     28  CZ2      104.8960   24.1910   24.6280 C.ar  160  TRP160      0.0191
     29  CZ3      105.7790   26.3800   24.0680 C.ar  160  TRP160      0.0001
     30  CH2      105.3800   25.0820   23.7000 C.ar  160  TRP160      0.0015
     31  N        104.8850   34.7300   31.3490 N.3   252  ILE252     -0.1245
     32  CA       103.6550   33.9570   31.4390 C.3   252  ILE252      0.1561
     33  C        103.4150   33.6910   32.9300 C.2   252  ILE252      0.2260
     34  O        104.3660   33.6040   33.7180 O.2   252  ILE252     -0.2867
     35  CB       103.7640   32.6520   30.6240 C.3   252  ILE252      0.0252
     36  CG1      105.0070   31.8640   31.0450 C.3   252  ILE252      0.0019
     37  CG2      103.8350   32.9780   29.1290 C.3   252  ILE252      0.0019
     38  CD1      104.9590   30.4240   30.6060 C.3   252  ILE252      0.0001
     39  N        102.1490   30.9440   35.0260 N.3   254  PRO254     -0.2116
     40  CA       102.5160   29.7620   35.8120 C.3   254  PRO254      0.1372
     41  C        103.8790   29.7550   36.4980 C.2   254  PRO254      0.2244
     42  O        103.9550   29.7990   37.7330 O.2   254  PRO254     -0.2868
     43  CB       102.3390   28.6140   34.8180 C.3   254  PRO254      0.0268
     44  CG       101.3740   29.1750   33.7990 C.3   254  PRO254      0.0207
     45  CD       101.8630   30.5730   33.6320 C.3   254  PRO254      0.0892
     46  N         97.3160   36.0990   31.3710 N.3   297  ALA297     -0.1231
     47  CA        98.1310   34.8910   31.2850 C.3   297  ALA297      0.1694
     48  C         99.4970   35.2100   30.6520 C.2   297  ALA297      0.2592
     49  O        100.5060   34.5380   30.9330 O.2   297  ALA297     -0.2718
     50  CB        97.3940   33.8290   30.4920 C.3   297  ALA297      0.0304
     51  N         99.5130   36.2880   29.8670 N.am  298  SER298     -0.1952
     52  CA       100.6950   36.8050   29.1810 C.3   298  SER298      0.1924
     53  C        100.3130   38.1150   28.4670 C.2   298  SER298      0.2314
     54  O         99.1400   38.4930   28.4500 O.2   298  SER298     -0.2863
     55  CB       101.2130   35.7820   28.1670 C.3   298  SER298      0.2116
     56  OG       102.4790   36.1710   27.6590 O.3   298  SER298     -0.2180
     57  N        103.6650   41.3500   19.4450 N.3   303  TRP303     -0.1241
     58  CA       102.8420   40.6440   18.4670 C.3   303  TRP303      0.1605
     59  C        101.8400   41.6320   17.8470 C.2   303  TRP303      0.2264
     60  O        101.8140   41.8260   16.6270 O.2   303  TRP303     -0.2867
     61  CB       102.1180   39.4830   19.1680 C.3   303  TRP303      0.0550
     62  CG       101.3090   38.5860   18.2760 C.ar  303  TRP303      0.0003
     63  CD1       99.9520   38.4200   18.2950 C.ar  303  TRP303      0.0946
     64  CD2      101.8050   37.6980   17.2660 C.ar  303  TRP303      0.0152
     65  NE1       99.5730   37.4820   17.3650 N.ar  303  TRP303     -0.2442
     66  CE2      100.6900   37.0230   16.7180 C.ar  303  TRP303      0.0810
     67  CE3      103.0820   37.4000   16.7750 C.ar  303  TRP303      0.0012
     68  CZ2      100.8160   36.0670   15.7030 C.ar  303  TRP303      0.0191
     69  CZ3      103.2050   36.4430   15.7630 C.ar  303  TRP303      0.0001
     70  CH2      102.0780   35.7910   15.2420 C.ar  303  TRP303      0.0015
     71  N        107.4610   37.9390   22.6220 N.3   356  PHE356     -0.1227
     72  CA       106.0460   38.2810   22.6550 C.3   356  PHE356      0.1736
     73  C        105.7300   39.5180   23.5090 C.2   356  PHE356      0.2595
     74  O        105.0250   40.4450   23.0640 O.2   356  PHE356     -0.2718
     75  CB       105.3050   37.0690   23.2130 C.3   356  PHE356      0.0547
     76  CG       103.8180   37.1400   23.0900 C.ar  356  PHE356     -0.0202
     77  CD1      103.2150   37.3620   21.8500 C.ar  356  PHE356     -0.0042
     78  CD2      103.0130   36.8970   24.2020 C.ar  356  PHE356     -0.0042
     79  CE1      101.8460   37.3250   21.7220 C.ar  356  PHE356     -0.0003
     80  CE2      101.6340   36.8600   24.0850 C.ar  356  PHE356     -0.0003
     81  CZ       101.0510   37.0700   22.8460 C.ar  356  PHE356     -0.0000
     82  N        106.1960   39.4900   24.7560 N.am  357  GLN357     -0.1979
     83  CA       105.9770   40.5810   25.6940 C.3   357  GLN357      0.1601
     84  C        106.9770   41.7560   25.5710 C.2   357  GLN357      0.2287
     85  O        107.7050   41.8740   24.5780 O.2   357  GLN357     -0.2864
     86  CB       105.8790   40.0500   27.1340 C.3   357  GLN357      0.0394
     87  CG       106.7660   38.8710   27.4780 C.3   357  GLN357      0.0908
     88  CD       106.3600   37.5790   26.7750 C.2   357  GLN357      0.2608
     89  OE1      106.9810   37.1850   25.7910 O.2   357  GLN357     -0.2717
     90  NE2      105.3300   36.9100   27.2880 N.am  357  GLN357     -0.0878
     91  N        110.5760   33.9590   20.4590 N.3   365  ASP365     -0.1239
     92  CA       109.9030   32.9010   19.7140 C.3   365  ASP365      0.1674
     93  C        109.9320   33.2430   18.2310 C.2   365  ASP365      0.2266
     94  O        109.8850   34.4170   17.8430 O.2   365  ASP365     -0.2867
     95  CB       108.4710   32.7270   20.1820 C.3   365  ASP365      0.1410
     96  CG       107.6060   33.8730   19.7870 C.2   365  ASP365      0.3668
     97  OD1      107.7730   34.9630   20.3820 O.co2 365  ASP365     -0.2456
     98  OD2      106.7920   33.6870   18.8580 O.co2 365  ASP365     -0.2456
     99  N        107.6870   32.8020   15.8850 N.3   367  ASP367     -0.1225
    100  CA       106.4540   33.4080   15.4100 C.3   367  ASP367      0.1805
    101  C        106.4910   34.9340   15.5020 C.2   367  ASP367      0.2597
    102  O        106.1550   35.6290   14.5380 O.2   367  ASP367     -0.2718
    103  CB       105.2660   32.8360   16.1720 C.3   367  ASP367      0.1424
    104  CG       104.0330   32.6820   15.3000 C.2   367  ASP367      0.3668
    105  OD1      104.1490   32.8100   14.0620 O.co2 367  ASP367     -0.2456
    106  OD2      102.9440   32.4200   15.8580 O.co2 367  ASP367     -0.2456
    107  N        106.9270   35.4580   16.6440 N.am  368  ASP368     -0.1974
    108  CA       107.0320   36.9000   16.8070 C.3   368  ASP368      0.1709
    109  C        108.0710   37.4570   15.8330 C.2   368  ASP368      0.2293
    110  O        107.7430   38.2710   14.9660 O.2   368  ASP368     -0.2864
    111  CB       107.4000   37.2630   18.2480 C.3   368  ASP368      0.1436
    112  CG       106.1810   37.5290   19.1040 C.2   368  ASP368      0.3671
    113  OD1      105.5690   38.6000   18.9440 O.co2 368  ASP368     -0.2456
    114  OD2      105.8150   36.6740   19.9280 O.co2 368  ASP368     -0.2456
    115  N        108.3020   26.9960   18.2180 N.3   410  ALA410     -0.1231
    116  CA       108.1250   28.3310   18.7790 C.3   410  ALA410      0.1694
    117  C        109.3690   28.8960   19.4440 C.2   410  ALA410      0.2592
    118  O        109.7750   30.0170   19.1460 O.2   410  ALA410     -0.2718
    119  CB       106.9710   28.3400   19.7600 C.3   410  ALA410      0.0304
    120  N        109.9790   28.1080   20.3280 N.am  411  TYR411     -0.1976
    121  CA       111.1610   28.5410   21.0740 C.3   411  TYR411      0.1639
    122  C        112.4520   27.7550   20.8770 C.2   411  TYR411      0.2290
    123  O        113.5150   28.3520   20.7270 O.2   411  TYR411     -0.2864
    124  CB       110.8400   28.5790   22.5660 C.3   411  TYR411      0.0560
    125  CG       109.6490   29.4460   22.9100 C.ar  411  TYR411     -0.0198
    126  CD1      109.7730   30.8420   23.0070 C.ar  411  TYR411     -0.0009
    127  CD2      108.3950   28.8790   23.1330 C.ar  411  TYR411     -0.0009
    128  CE1      108.6750   31.6430   23.3170 C.ar  411  TYR411      0.0417
    129  CE2      107.2900   29.6760   23.4430 C.ar  411  TYR411      0.0417
    130  CZ       107.4370   31.0560   23.5320 C.ar  411  TYR411      0.1957
    131  OH       106.3390   31.8390   23.8060 O.3   411  TYR411     -0.2866
    132  N         98.0510   18.3620   31.7240 N.3   428  PHE428     -0.1241
    133  CA        97.5000   19.6230   31.2420 C.3   428  PHE428      0.1605
    134  C         98.3680   20.2850   30.1730 C.2   428  PHE428      0.2264
    135  O         99.4720   20.7460   30.4520 O.2   428  PHE428     -0.2867
    136  CB        97.2990   20.5840   32.4180 C.3   428  PHE428      0.0534
    137  CG        96.5980   21.8640   32.0520 C.ar  428  PHE428     -0.0203
    138  CD1       95.2080   21.9510   32.1080 C.ar  428  PHE428     -0.0042
    139  CD2       97.3280   22.9890   31.6650 C.ar  428  PHE428     -0.0042
    140  CE1       94.5540   23.1380   31.7880 C.ar  428  PHE428     -0.0003
    141  CE2       96.6870   24.1830   31.3410 C.ar  428  PHE428     -0.0003
    142  CZ        95.2940   24.2570   31.4040 C.ar  428  PHE428     -0.0000
    143  N         98.4330   27.8510   17.0490 N.3   480  TRP480     -0.1241
    144  CA        98.3260   29.0020   17.9220 C.3   480  TRP480      0.1605
    145  C         97.0570   29.8070   17.7170 C.2   480  TRP480      0.2264
    146  O         96.6000   30.4860   18.6370 O.2   480  TRP480     -0.2867
    147  CB        99.5790   29.8750   17.7980 C.3   480  TRP480      0.0550
    148  CG       100.8340   29.1460   18.2320 C.ar  480  TRP480      0.0003
    149  CD1      101.7750   28.5870   17.4160 C.ar  480  TRP480      0.0946
    150  CD2      101.2420   28.8440   19.5780 C.ar  480  TRP480      0.0152
    151  NE1      102.7360   27.9500   18.1650 N.ar  480  TRP480     -0.2442
    152  CE2      102.4340   28.0910   19.4940 C.ar  480  TRP480      0.0810
    153  CE3      100.7130   29.1330   20.8420 C.ar  480  TRP480      0.0012
    154  CZ2      103.1080   27.6250   20.6290 C.ar  480  TRP480      0.0191
    155  CZ3      101.3790   28.6720   21.9660 C.ar  480  TRP480      0.0001
    156  CH2      102.5660   27.9250   21.8520 C.ar  480  TRP480      0.0015
    157  N         92.5290   29.1110   10.5280 N.3   486  TYR486     -0.1241
    158  CA        93.7540   29.8390   10.8480 C.3   486  TYR486      0.1605
    159  C         94.9420   29.2020   10.1510 C.2   486  TYR486      0.2264
    160  O         95.6800   29.8810    9.4220 O.2   486  TYR486     -0.2867
    161  CB        94.0060   29.8190   12.3540 C.3   486  TYR486      0.0534
    162  CG        95.2880   30.5090   12.7720 C.ar  486  TYR486     -0.0201
    163  CD1       95.4080   31.8980   12.7040 C.ar  486  TYR486     -0.0009
    164  CD2       96.3590   29.7810   13.2880 C.ar  486  TYR486     -0.0009
    165  CE1       96.5550   32.5470   13.1530 C.ar  486  TYR486      0.0417
    166  CE2       97.5120   30.4200   13.7420 C.ar  486  TYR486      0.0417
    167  CZ        97.6050   31.8050   13.6790 C.ar  486  TYR486      0.1957
    168  OH        98.7180   32.4510   14.1890 O.3   486  TYR486     -0.2866
    169  N         96.2430   28.5830   23.2090 N.3   591  GLY591     -0.1210
    170  CA        97.4180   28.4620   24.0520 C.3   591  GLY591      0.1956
    171  C         97.8890   27.0240   23.9490 C.2   591  GLY591      0.2611
    172  O         98.9810   26.7510   23.4450 O.2   591  GLY591     -0.2717
    173  N         97.0470   26.1090   24.4300 N.am  592  PHE592     -0.1976
    174  CA        97.3030   24.6680   24.3880 C.3   592  PHE592      0.1639
    175  C         96.0650   23.9950   23.8150 C.2   592  PHE592      0.2290
    176  O         94.9780   24.1000   24.3810 O.2   592  PHE592     -0.2864
    177  CB        97.5520   24.1030   25.7870 C.3   592  PHE592      0.0560
    178  CG        98.7480   24.6790   26.4680 C.ar  592  PHE592     -0.0200
    179  CD1       99.8510   25.0950   25.7300 C.ar  592  PHE592     -0.0042
    180  CD2       98.7620   24.8360   27.8510 C.ar  592  PHE592     -0.0042
    181  CE1      100.9490   25.6640   26.3550 C.ar  592  PHE592     -0.0003
    182  CE2       99.8540   25.4020   28.4900 C.ar  592  PHE592     -0.0003
    183  CZ       100.9520   25.8200   27.7410 C.ar  592  PHE592     -0.0000
    184  N         93.7080   25.1520   26.8730 N.3   596  PHE596     -0.1241
    185  CA        93.8480   26.5730   27.1850 C.3   596  PHE596      0.1605
    186  C         93.6290   27.4310   25.9540 C.2   596  PHE596      0.2264
    187  O         94.3550   27.3030   24.9670 O.2   596  PHE596     -0.2867
    188  CB        95.2590   26.8400   27.7250 C.3   596  PHE596      0.0534
    189  CG        95.3530   28.0540   28.5860 C.ar  596  PHE596     -0.0203
    190  CD1       95.5970   29.3020   28.0260 C.ar  596  PHE596     -0.0042
    191  CD2       95.1640   27.9600   29.9630 C.ar  596  PHE596     -0.0042
    192  CE1       95.6450   30.4550   28.8320 C.ar  596  PHE596     -0.0003
    193  CE2       95.2100   29.0930   30.7750 C.ar  596  PHE596     -0.0003
    194  CZ        95.4500   30.3470   30.2070 C.ar  596  PHE596     -0.0000
    195  N         92.7260   31.4680   24.1120 N.3   598  LEU598     -0.1245
    196  CA        93.0020   32.8970   24.2340 C.3   598  LEU598      0.1561
    197  C         92.1440   33.8580   23.4310 C.2   598  LEU598      0.2260
    198  O         91.7500   33.5850   22.2980 O.2   598  LEU598     -0.2867
    199  CB        94.4700   33.1730   23.8750 C.3   598  LEU598      0.0270
    200  CG        95.5410   32.4960   24.7310 C.3   598  LEU598      0.0019
    201  CD1       96.9180   32.7740   24.1430 C.3   598  LEU598      0.0001
    202  CD2       95.4430   32.9800   26.1760 C.3   598  LEU598      0.0001
    203  N         92.6000   37.2470   21.7690 N.3   600  TYR600     -0.1241
    204  CA        93.4870   38.3020   21.2950 C.3   600  TYR600      0.1605
    205  C         92.6200   39.4780   20.9090 C.2   600  TYR600      0.2264
    206  O         92.1660   39.5750   19.7680 O.2   600  TYR600     -0.2867
    207  CB        94.2790   37.8530   20.0720 C.3   600  TYR600      0.0534
    208  CG        95.4370   36.9340   20.3630 C.ar  600  TYR600     -0.0201
    209  CD1       95.2600   35.5510   20.4170 C.ar  600  TYR600     -0.0009
    210  CD2       96.7200   37.4450   20.5620 C.ar  600  TYR600     -0.0009
    211  CE1       96.3370   34.6950   20.6590 C.ar  600  TYR600      0.0417
    212  CE2       97.8020   36.6030   20.8050 C.ar  600  TYR600      0.0417
    213  CZ        97.6060   35.2290   20.8530 C.ar  600  TYR600      0.1957
    214  OH        98.6730   34.3900   21.1020 O.3   600  TYR600     -0.2866
    215  N         92.8370   40.9490   17.3650 N.3   603  TYR603     -0.1241
    216  CA        92.5600   40.1520   16.1710 C.3   603  TYR603      0.1605
    217  C         91.3580   40.6180   15.3540 C.2   603  TYR603      0.2264
    218  O         91.4490   40.7740   14.1290 O.2   603  TYR603     -0.2867
    219  CB        92.4110   38.6740   16.5350 C.3   603  TYR603      0.0534
    220  CG        93.7200   37.9000   16.6390 C.ar  603  TYR603     -0.0201
    221  CD1       94.9580   38.5570   16.7030 C.ar  603  TYR603     -0.0009
    222  CD2       93.7180   36.5030   16.6840 C.ar  603  TYR603     -0.0009
    223  CE1       96.1600   37.8360   16.8140 C.ar  603  TYR603      0.0417
    224  CE2       94.9040   35.7780   16.7940 C.ar  603  TYR603      0.0417
    225  CZ        96.1250   36.4470   16.8590 C.ar  603  TYR603      0.1957
    226  OH        97.2920   35.7170   16.9770 O.3   603  TYR603     -0.2866
@<TRIPOS>BOND
     1   160   159    2
     2   159   158    1
     3   157   158    1
     4   158   161    1
     5   161   162    1
     6   163   162   ar
     7   163   165   ar
     8   162   164   ar
     9   165   167   ar
    10   164   166   ar
    11   167   166   ar
    12   167   168    1
    13   105   104   ar
    14   218   217    2
    15   102   101    2
    16   110   109    2
    17    70    68   ar
    18    70    69   ar
    19   104   106   ar
    20   104   103    1
    21   217   216    1
    22   100   101    1
    23   100    99    1
    24   100   103    1
    25   101   107   am
    26    68    66   ar
    27    69    67   ar
    28   109   108    1
    29   216   219    1
    30   216   215    1
    31   219   220    1
    32    60    59    2
    33   220   222   ar
    34   220   221   ar
    35   107   108    1
    36   222   224   ar
    37   221   223   ar
    38    66    64   ar
    39    66    65   ar
    40    67    64   ar
    41   224   225   ar
    42   108   111    1
    43   223   225   ar
    44   225   226    1
    45   143   144    1
    46    64    62   ar
    47    65    63   ar
    48   149   151   ar
    49   149   148   ar
    50   145   144    1
    51   145   146    2
    52   147   144    1
    53   147   148    1
    54    94    93    2
    55    59    58    1
    56   151   152   ar
    57   115   116    1
    58    93    92    1
    59   148   150   ar
    60   111   112    1
    61    62    63   ar
    62    62    61    1
    63    58    61    1
    64    58    57    1
    65   116   117    1
    66   116   119    1
    67    98    96   ar
    68   113   112   ar
    69   112   114   ar
    70   118   117    2
    71   117   120   am
    72   152   150   ar
    73   152   154   ar
    74   150   153   ar
    75    92    95    1
    76    92    91    1
    77   206   205    2
    78    96    95    1
    79    96    97   ar
    80   207   208    1
    81   207   204    1
    82   120   121    1
    83   208   209   ar
    84   208   210   ar
    85   209   211   ar
    86   210   212   ar
    87   154   156   ar
    88   211   213   ar
    89   123   122    2
    90   212   213   ar
    91   153   155   ar
    92   213   214    1
    93   122   121    1
    94   205   204    1
    95   121   124    1
    96   204   203    1
    97    79    77   ar
    98    79    81   ar
    99    77    76   ar
   100   156   155   ar
   101   198   197    2
   102   124   125    1
   103    71    72    1
   104    72    75    1
   105    72    73    1
   106    81    80   ar
   107   125   126   ar
   108   125   127   ar
   109   126   128   ar
   110    74    73    2
   111    76    75    1
   112    76    78   ar
   113   127   129   ar
   114   169   170    1
   115   128   130   ar
   116   197   196    1
   117   129   130   ar
   118   172   171    2
   119    73    82   am
   120   130   131    1
   121    30    29   ar
   122    30    28   ar
   123   175   176    2
   124   175   174    1
   125   199   196    1
   126   199   200    1
   127   171   170    1
   128   171   173   am
   129    29    27   ar
   130    80    78   ar
   131   195   196    1
   132   201   200    1
   133     7     6    1
   134   174   173    1
   135   174   177    1
   136    85    84    2
   137    28    26   ar
   138   200   202    1
   139    82    83    1
   140   187   186    2
   141    27    24   ar
   142    84    83    1
   143    83    86    1
   144     6     8    1
   145     6     5    1
   146   179   181   ar
   147   179   178   ar
   148   177   178    1
   149    89    88    2
   150   186   185    1
   151    26    24   ar
   152    26    25   ar
   153     2     5    1
   154     2     1    1
   155     2     3    1
   156   181   183   ar
   157    24    22   ar
   158   178   180   ar
   159    88    90   am
   160    88    87    1
   161   184   185    1
   162    25    23   ar
   163    86    87    1
   164   185   188    1
   165     3     4    2
   166    56    55    1
   167   188   189    1
   168   183   182   ar
   169    22    23   ar
   170    22    21    1
   171   180   182   ar
   172   190   189   ar
   173   190   192   ar
   174    55    52    1
   175    17    18    1
   176    54    53    2
   177    53    52    1
   178   189   191   ar
   179    21    18    1
   180   192   194   ar
   181    37    35    1
   182    52    51    1
   183    18    19    1
   184    51    48   am
   185   191   193   ar
   186   134   135    2
   187   134   133    1
   188   194   193   ar
   189    19    20    2
   190    50    47    1
   191    38    36    1
   192    35    36    1
   193    35    32    1
   194    48    49    2
   195    48    47    1
   196   133   132    1
   197   133   136    1
   198    47    46    1
   199   141   142   ar
   200   141   139   ar
   201    31    32    1
   202   142   140   ar
   203    32    33    1
   204   139   137   ar
   205   140   138   ar
   206   137   138   ar
   207   137   136    1
   208    33    34    2
   209    45    44    1
   210    45    39    1
   211    44    43    1
   212    16    15    1
   213    15    14    1
   214    14    13    1
   215    43    40    1
   216    39    40    1
   217    13    10    1
   218    40    41    1
   219     9    10    1
   220    10    11    1
   221    41    42    2
   222    11    12    2
