@<TRIPOS>MOLECULE
tmp/1sqfA00.pdb
 182 175 0 0 0
SMALL
GASTEIGER

@<TRIPOS>ATOM
      1  N         -5.9790   -4.7820   30.3530 N.3   227  GLN227     -0.1245
      2  CA        -4.9320   -5.1620   29.4250 C.3   227  GLN227      0.1566
      3  C         -5.4690   -6.1930   28.4730 C.2   227  GLN227      0.2260
      4  O         -6.1350   -7.1820   28.8720 O.2   227  GLN227     -0.2867
      5  CB        -3.6910   -5.6510   30.1400 C.3   227  GLN227      0.0367
      6  CG        -2.4760   -5.8620   29.1600 C.3   227  GLN227      0.0905
      7  CD        -1.2960   -6.5950   29.8080 C.2   227  GLN227      0.2608
      8  OE1       -1.4780   -7.4080   30.7120 O.2   227  GLN227     -0.2717
      9  NE2       -0.1090   -6.3160   29.3590 N.am  227  GLN227     -0.0878
     10  N         12.4890   -3.8760   29.8020 N.3   248  ASP248     -0.1225
     11  CA        11.2040   -3.7660   29.1080 C.3   248  ASP248      0.1805
     12  C         11.3840   -2.5530   28.2090 C.2   248  ASP248      0.2598
     13  O         11.3150   -1.4160   28.6650 O.2   248  ASP248     -0.2718
     14  CB        10.0690   -3.5980   30.1510 C.3   248  ASP248      0.1424
     15  CG         8.6810   -3.6130   29.5280 C.2   248  ASP248      0.3668
     16  OD1        8.5510   -4.1130   28.3750 O.co2 248  ASP248     -0.2456
     17  OD2        7.6640   -3.1290   30.0850 O.co2 248  ASP248     -0.2456
     18  N         11.5670   -2.7640   26.9140 N.am  249  LEU249     -0.1966
     19  CA        11.8810   -1.6520   26.0010 C.3   249  LEU249      0.1728
     20  C         10.6540   -1.1580   25.3130 C.2   249  LEU249      0.2616
     21  O          9.9480   -1.9600   24.7870 O.2   249  LEU249     -0.2715
     22  CB        12.8200   -2.1700   24.9130 C.3   249  LEU249      0.0311
     23  CG        13.9440   -1.2500   24.4860 C.3   249  LEU249      0.0022
     24  CD1       14.4180   -1.6660   23.1210 C.3   249  LEU249      0.0001
     25  CD2       13.6790    0.2500   24.5270 C.3   249  LEU249      0.0001
     26  N         10.4890    0.1400   25.1800 N.am  250  CYS250     -0.1954
     27  CA         9.2170    0.7190   24.6900 C.3   250  CYS250      0.1843
     28  C          8.0860    0.3600   25.6720 C.2   250  CYS250      0.2625
     29  O          7.0350   -0.1610   25.2840 O.2   250  CYS250     -0.2714
     30  CB         8.8860    0.2450   23.2840 C.3   250  CYS250      0.0997
     31  SG        10.2610    0.3890   22.0840 S.3   250  CYS250     -0.0797
     32  N          8.2940    0.7070   26.9370 N.am  251  ALA251     -0.1963
     33  CA         7.4720    0.2450   28.0540 C.3   251  ALA251      0.1728
     34  C          6.1610    0.9670   28.3630 C.2   251  ALA251      0.2616
     35  O          5.2280    0.3380   28.8470 O.2   251  ALA251     -0.2715
     36  CB         8.3490    0.2470   29.3740 C.3   251  ALA251      0.0334
     37  N          6.0660    2.2460   28.0860 N.am  252  ALA252     -0.1964
     38  CA         4.8370    3.0150   28.3770 C.3   252  ALA252      0.1713
     39  C          3.6860    2.5440   27.5650 C.2   252  ALA252      0.2458
     40  O          3.8250    2.3570   26.3700 O.2   252  ALA252     -0.2730
     41  CB         5.0440    4.4370   28.1230 C.3   252  ALA252      0.0333
     42  N          2.4880    2.4920   28.1470 N.am  253  PRO253     -0.2716
     43  CA         2.1800    2.9970   29.4940 C.3   253  PRO253      0.1536
     44  C          2.4560    1.9810   30.6120 C.2   253  PRO253      0.2599
     45  O          2.0630    2.2380   31.7210 O.2   253  PRO253     -0.2715
     46  CB         0.6510    3.2110   29.4420 C.3   253  PRO253      0.0310
     47  CG         0.1560    2.2690   28.4290 C.3   253  PRO253      0.0237
     48  CD         1.3090    1.9090   27.4950 C.3   253  PRO253      0.0939
     49  N          3.0350    0.8450   30.3140 N.am  254  GLY254     -0.1941
     50  CA         3.4940   -0.0290   31.3690 C.3   254  GLY254      0.2014
     51  C          2.6540   -1.2280   31.7070 C.2   254  GLY254      0.2639
     52  O          2.8250   -1.8290   32.7800 O.2   254  GLY254     -0.2714
     53  N          1.8080   -1.6020   30.7540 N.am  255  GLY255     -0.1939
     54  CA         0.9850   -2.8000   30.8640 C.3   255  GLY255      0.2014
     55  C          1.8220   -4.0370   31.0640 C.2   255  GLY255      0.2638
     56  O          1.5540   -4.8810   31.9220 O.2   255  GLY255     -0.2714
     57  N          2.8130   -4.1920   30.2120 N.am  256  LYS256     -0.1977
     58  CA         3.6540   -5.3580   30.3220 C.3   256  LYS256      0.1596
     59  C          4.6800   -5.2400   31.4530 C.2   256  LYS256      0.2287
     60  O          5.0620   -6.2510   32.0830 O.2   256  LYS256     -0.2864
     61  CB         4.2580   -5.6200   28.9640 C.3   256  LYS256      0.0298
     62  CG         3.1770   -5.7150   27.9200 C.3   256  LYS256      0.0038
     63  CD         3.8330   -6.0610   26.6010 C.3   256  LYS256      0.0206
     64  CE         2.8070   -6.2070   25.4000 C.3   256  LYS256      0.1093
     65  NZ         1.8970   -5.0090   25.3010 N.3   256  LYS256     -0.1314
     66  N         11.3330    4.2400   27.6090 N.3   273  ASP273     -0.1225
     67  CA        10.5350    4.6430   26.5500 C.3   273  ASP273      0.1805
     68  C         11.0730    5.9880   26.1180 C.2   273  ASP273      0.2598
     69  O         11.5640    6.7560   26.9230 O.2   273  ASP273     -0.2718
     70  CB         9.0760    4.7150   27.0350 C.3   273  ASP273      0.1424
     71  CG         8.1090    4.7260   25.8930 C.2   273  ASP273      0.3668
     72  OD1        8.1170    5.7680   25.2060 O.co2 273  ASP273     -0.2456
     73  OD2        7.3250    3.7740   25.6080 O.co2 273  ASP273     -0.2456
     74  N         10.9370    6.3040   24.8640 N.am  274  ILE274     -0.1966
     75  CA        11.4620    7.5770   24.3740 C.3   274  ILE274      0.1727
     76  C         10.5900    8.7500   24.7530 C.2   274  ILE274      0.2616
     77  O         11.0020    9.8680   24.5990 O.2   274  ILE274     -0.2715
     78  CB        11.5620    7.5840   22.8260 C.3   274  ILE274      0.0290
     79  CG1       12.4790    8.7360   22.3500 C.3   274  ILE274      0.0022
     80  CG2       10.1500    7.7300   22.1730 C.3   274  ILE274      0.0023
     81  CD1       12.7320    8.7110   20.8220 C.3   274  ILE274      0.0001
     82  N          9.3750    8.4980   25.2270 N.am  275  ASP275     -0.1971
     83  CA         8.4500    9.6100   25.4570 C.3   275  ASP275      0.1709
     84  C          8.2220    9.9300   26.9400 C.2   275  ASP275      0.2293
     85  O          7.6460    9.1110   27.6330 O.2   275  ASP275     -0.2864
     86  CB         7.1210    9.3320   24.7630 C.3   275  ASP275      0.1436
     87  CG         6.1980   10.5250   24.8370 C.2   275  ASP275      0.3671
     88  OD1        5.9520   11.1580   23.7970 O.co2 275  ASP275     -0.2456
     89  OD2        5.7340   10.9500   25.9010 O.co2 275  ASP275     -0.2456
     90  N          4.2410    9.7660   28.1540 N.3   278  ARG278     -0.1245
     91  CA         3.7630    8.4250   28.4540 C.3   278  ARG278      0.1563
     92  C          4.5000    7.7390   29.6230 C.2   278  ARG278      0.2260
     93  O          3.9280    6.9750   30.3860 O.2   278  ARG278     -0.2867
     94  CB         3.8050    7.5560   27.1990 C.3   278  ARG278      0.0307
     95  CG         3.1730    8.1850   25.9470 C.3   278  ARG278      0.0489
     96  CD         3.2350    7.2320   24.7540 C.3   278  ARG278      0.2205
     97  NE         2.4900    6.0110   25.0230 N.pl3 278  ARG278     -0.0865
     98  CZ         2.7260    4.8360   24.4490 C.cat 278  ARG278      0.5346
     99  NH1        3.6990    4.7130   23.5600 N.pl3 278  ARG278      0.1354
    100  NH2        1.9890    3.7820   24.7740 N.pl3 278  ARG278      0.1354
    101  N         14.6050    6.9450   27.0480 N.3   298  GLY298     -0.1210
    102  CA        15.6990    6.5990   26.1430 C.3   298  GLY298      0.1956
    103  C         15.2180    6.0990   24.7950 C.2   298  GLY298      0.2612
    104  O         14.0740    5.6940   24.6560 O.2   298  GLY298     -0.2717
    105  N         16.0980    6.1470   23.7960 N.am  299  ASP299     -0.1959
    106  CA        15.7620    5.7060   22.4540 C.3   299  ASP299      0.1840
    107  C         16.3430    4.2970   22.2260 C.2   299  ASP299      0.2623
    108  O         17.5550    4.0860   22.2870 O.2   299  ASP299     -0.2715
    109  CB        16.3070    6.7190   21.4410 C.3   299  ASP299      0.1450
    110  CG        15.7930    6.4840   20.0210 C.2   299  ASP299      0.3671
    111  OD1       15.5990    5.3250   19.6220 O.co2 299  ASP299     -0.2456
    112  OD2       15.5370    7.4120   19.2200 O.co2 299  ASP299     -0.2456
    113  N         15.4490    3.3360   21.9540 N.am  300  GLY300     -0.1940
    114  CA        15.8150    1.9600   21.6900 C.3   300  GLY300      0.2014
    115  C         16.7470    1.8440   20.4770 C.2   300  GLY300      0.2638
    116  O         17.2670    0.7640   20.2540 O.2   300  GLY300     -0.2714
    117  N         16.9480    2.9000   19.6900 N.am  301  ARG301     -0.1977
    118  CA        17.9970    2.8620   18.6410 C.3   301  ARG301      0.1597
    119  C         19.3970    3.1410   19.1990 C.2   301  ARG301      0.2287
    120  O         20.3810    2.7000   18.6350 O.2   301  ARG301     -0.2864
    121  CB        17.7500    3.8980   17.5360 C.3   301  ARG301      0.0334
    122  CG        16.3610    3.7330   16.8590 C.3   301  ARG301      0.0492
    123  CD        15.9420    4.8430   15.9570 C.3   301  ARG301      0.2205
    124  NE        15.5080    6.0660   16.6260 N.pl3 301  ARG301     -0.0865
    125  CZ        15.1370    7.1590   15.9380 C.cat 301  ARG301      0.5346
    126  NH1       15.1730    7.1380   14.6010 N.pl3 301  ARG301      0.1354
    127  NH2       14.7210    8.2570   16.5560 N.pl3 301  ARG301      0.1354
    128  N          8.5120   -4.3710   22.9280 N.3   318  ASP318     -0.1225
    129  CA         7.1140   -4.2220   22.5120 C.3   318  ASP318      0.1805
    130  C          7.2670   -3.0790   21.4900 C.2   318  ASP318      0.2598
    131  O          7.1520   -1.8750   21.8050 O.2   318  ASP318     -0.2718
    132  CB         6.2930   -3.8630   23.7670 C.3   318  ASP318      0.1424
    133  CG         4.7920   -3.8820   23.5400 C.2   318  ASP318      0.3668
    134  OD1        4.3540   -4.5960   22.6060 O.co2 318  ASP318     -0.2456
    135  OD2        3.9920   -3.2690   24.2870 O.co2 318  ASP318     -0.2456
    136  N          7.6530   -3.4710   20.2750 N.am  319  ALA319     -0.1966
    137  CA         8.0510   -2.5150   19.2660 C.3   319  ALA319      0.1713
    138  C          6.9790   -1.5340   18.7540 C.2   319  ALA319      0.2458
    139  O          5.8340   -1.8840   18.6660 O.2   319  ALA319     -0.2730
    140  CB         8.6080   -3.2490   18.1410 C.3   319  ALA319      0.0333
    141  N          7.3790   -0.3010   18.4770 N.am  320  PRO320     -0.2716
    142  CA         6.4930    0.6920   17.8800 C.3   320  PRO320      0.1536
    143  C          5.9990    0.0460   16.5860 C.2   320  PRO320      0.2598
    144  O          6.8040   -0.6370   15.9190 O.2   320  PRO320     -0.2715
    145  CB         7.4310    1.8410   17.5180 C.3   320  PRO320      0.0310
    146  CG         8.5270    1.6890   18.3310 C.3   320  PRO320      0.0237
    147  CD         8.7340    0.2140   18.6850 C.3   320  PRO320      0.0939
    148  N          4.7400    0.2320   16.2260 N.am  321  CYS321     -0.1968
    149  CA         4.2510   -0.5190   15.0810 C.3   321  CYS321      0.1712
    150  C          3.0050    0.0680   14.4970 C.2   321  CYS321      0.2296
    151  O          2.4950    0.9990   15.0230 O.2   321  CYS321     -0.2864
    152  CB         4.0040   -1.9860   15.4060 C.3   321  CYS321      0.0983
    153  SG         2.5380   -2.3040   16.3870 S.3   321  CYS321     -0.0798
    154  N         12.4630    0.9870   11.4810 N.3   348  LEU348     -0.1245
    155  CA        12.7130    1.3800   12.8830 C.3   348  LEU348      0.1561
    156  C         12.7970    0.1350   13.7660 C.2   348  LEU348      0.2260
    157  O         13.7300    0.0150   14.5680 O.2   348  LEU348     -0.2867
    158  CB        11.6080    2.2960   13.4160 C.3   348  LEU348      0.0270
    159  CG        11.6020    2.6580   14.9240 C.3   348  LEU348      0.0019
    160  CD1       12.8400    3.4290   15.3190 C.3   348  LEU348      0.0001
    161  CD2       10.3350    3.5410   15.2520 C.3   348  LEU348      0.0001
    162  N         16.0730   -1.2270   15.9060 N.3   352  ILE352     -0.1245
    163  CA        16.0680   -1.3770   17.3600 C.3   352  ILE352      0.1561
    164  C         16.5670   -2.7660   17.7030 C.2   352  ILE352      0.2260
    165  O         17.3450   -2.9530   18.6430 O.2   352  ILE352     -0.2867
    166  CB        14.6650   -1.2510   18.0190 C.3   352  ILE352      0.0252
    167  CG1       13.9100    0.0650   17.7470 C.3   352  ILE352      0.0019
    168  CG2       14.7580   -1.4880   19.5290 C.3   352  ILE352      0.0019
    169  CD1       14.5810    1.2420   18.0030 C.3   352  ILE352      0.0001
    170  N          4.6160   -7.1530   18.5800 N.3   370  THR370     -0.1203
    171  CA         4.0160   -5.9950   17.9780 C.3   370  THR370      0.1994
    172  C          2.5090   -6.1540   18.0840 C.2   370  THR370      0.2618
    173  O          2.0010   -7.2670   18.3030 O.2   370  THR370     -0.2717
    174  CB         4.3100   -5.8370   16.5150 C.3   370  THR370      0.1784
    175  OG1        3.4580   -6.7210   15.7770 O.3   370  THR370     -0.2211
    176  CG2        5.7160   -6.2440   16.1400 C.3   370  THR370      0.0376
    177  N          1.8140   -5.0470   17.8960 N.am  371  CYS371     -0.1969
    178  CA         0.3880   -5.1690   17.7810 C.3   371  CYS371      0.1712
    179  C         -0.0240   -4.9190   16.3350 C.2   371  CYS371      0.2296
    180  O         -0.9870   -4.1800   16.0150 O.2   371  CYS371     -0.2864
    181  CB        -0.3430   -4.2700   18.8040 C.3   371  CYS371      0.0983
    182  SG         0.0270   -2.5840   18.6300 S.3   371  CYS371     -0.0798
@<TRIPOS>BOND
     1   154   155    1
     2   155   158    1
     3   155   156    1
     4   158   159    1
     5   156   157    2
     6   150   151    2
     7   150   149    1
     8   126   125    1
     9   159   161    1
    10   159   160    1
    11   149   152    1
    12   149   148    1
    13   152   153    1
    14   175   174    1
    15   162   163    1
    16   144   143    2
    17   125   127    1
    18   125   124    2
    19   123   124    1
    20   123   122    1
    21   180   179    2
    22   176   174    1
    23   148   143   am
    24   179   178    1
    25   174   171    1
    26   143   142    1
    27   122   121    1
    28   163   164    1
    29   163   166    1
    30   145   142    1
    31   145   146    1
    32   121   118    1
    33   164   165    2
    34   167   169    1
    35   167   166    1
    36   178   177    1
    37   178   181    1
    38   142   141    1
    39   177   172   am
    40   171   172    1
    41   171   170    1
    42   166   168    1
    43   172   173    2
    44   140   137    1
    45   146   147    1
    46   141   147    1
    47   141   138   am
    48   182   181    1
    49   120   119    2
    50   118   119    1
    51   118   117    1
    52   139   138    2
    53   138   137    1
    54   112   110   ar
    55   137   136    1
    56   111   110   ar
    57   117   115   am
    58   110   109    1
    59   116   115    2
    60   136   130   am
    61   115   114    1
    62    81    79    1
    63   109   106    1
    64   130   131    2
    65   130   129    1
    66   114   113    1
    67   113   107   am
    68    31    30    1
    69    80    78    1
    70   107   108    2
    71   107   106    1
    72    79    78    1
    73   106   105    1
    74   129   128    1
    75   129   132    1
    76   134   133   ar
    77    78    75    1
    78    24    23    1
    79    30    27    1
    80   133   132    1
    81   133   135   ar
    82    99    98    1
    83   105   103   am
    84    88    87   ar
    85    75    76    1
    86    75    74    1
    87    98   100    1
    88    98    97    2
    89    23    25    1
    90    23    22    1
    91    77    76    2
    92   104   103    2
    93    27    26    1
    94    27    28    1
    95    76    82   am
    96    96    97    1
    97    96    95    1
    98    86    87    1
    99    86    83    1
   100    21    20    2
   101   103   102    1
   102    87    89   ar
   103    74    68   am
   104    22    19    1
   105    26    20   am
   106    72    71   ar
   107    82    83    1
   108    29    28    2
   109    65    64    1
   110    20    19    1
   111    64    63    1
   112    83    84    1
   113    73    71   ar
   114    28    32   am
   115    71    70    1
   116    95    94    1
   117    19    18    1
   118    68    67    1
   119    68    69    2
   120   102   101    1
   121    40    39    2
   122    67    70    1
   123    67    66    1
   124    63    62    1
   125    18    12   am
   126    32    33    1
   127    84    85    2
   128    94    91    1
   129    48    42    1
   130    48    47    1
   131    39    42   am
   132    39    38    1
   133    62    61    1
   134    33    34    1
   135    33    36    1
   136    37    34   am
   137    37    38    1
   138    41    38    1
   139    42    43    1
   140    90    91    1
   141    12    13    2
   142    12    11    1
   143    34    35    2
   144    16    15   ar
   145    47    46    1
   146    91    92    1
   147     3     4    2
   148     3     2    1
   149    61    58    1
   150    11    10    1
   151    11    14    1
   152     6     7    1
   153     6     5    1
   154     9     7   am
   155     2     5    1
   156     2     1    1
   157    46    43    1
   158    43    44    1
   159    15    17   ar
   160    15    14    1
   161    92    93    2
   162     7     8    2
   163    57    58    1
   164    57    55   am
   165    49    44   am
   166    49    50    1
   167    58    59    1
   168    44    45    2
   169    53    54    1
   170    53    51   am
   171    54    55    1
   172    55    56    2
   173    50    51    1
   174    59    60    2
   175    51    52    2
