@<TRIPOS>MOLECULE
tmp/1sqiA00.pdb
 176 166 0 0 0
SMALL
GASTEIGER

@<TRIPOS>ATOM
      1  N         34.9430   -5.0240   -2.6240 N.3   176  HIS176     -0.1241
      2  CA        35.3930   -6.1390   -1.7930 C.3   176  HIS176      0.1621
      3  C         35.1820   -5.8690   -0.3080 C.2   176  HIS176      0.2264
      4  O         35.1460   -4.7150    0.1230 O.2   176  HIS176     -0.2867
      5  CB        36.8450   -6.4840   -2.0950 C.3   176  HIS176      0.0745
      6  CG        37.9060   -5.4690   -1.8440 C.ar  176  HIS176      0.0817
      7  ND1       38.2720   -4.4960   -2.7490 N.ar  176  HIS176     -0.2268
      8  CD2       38.7180   -5.2940   -0.7700 C.ar  176  HIS176      0.1154
      9  CE1       39.2520   -3.7670   -2.2480 C.ar  176  HIS176      0.1986
     10  NE2       39.5370   -4.2250   -1.0420 N.ar  176  HIS176     -0.2212
     11  N         36.8660   -7.1420    3.4270 N.3   178  VAL178     -0.1245
     12  CA        37.9550   -7.9220    4.0080 C.3   178  VAL178      0.1561
     13  C         37.6330   -8.3990    5.4200 C.2   178  VAL178      0.2260
     14  O         37.1680   -7.6230    6.2530 O.2   178  VAL178     -0.2867
     15  CB        39.2740   -7.1270    4.0280 C.3   178  VAL178      0.0252
     16  CG1       40.4070   -7.9340    4.6450 C.3   178  VAL178      0.0019
     17  CG2       39.6480   -6.7080    2.6130 C.3   178  VAL178      0.0019
     18  N         51.3750   -9.4110    7.4850 N.3   206  LEU206     -0.1245
     19  CA        50.0420   -9.7280    6.9810 C.3   206  LEU206      0.1561
     20  C         50.1000  -10.8600    5.9610 C.2   206  LEU206      0.2260
     21  O         50.9490  -10.8800    5.0720 O.2   206  LEU206     -0.2867
     22  CB        49.3900   -8.4810    6.3910 C.3   206  LEU206      0.0270
     23  CG        48.0620   -8.5820    5.6500 C.3   206  LEU206      0.0019
     24  CD1       47.0510   -9.4330    6.3970 C.3   206  LEU206      0.0001
     25  CD2       47.4920   -7.1920    5.3850 C.3   206  LEU206      0.0001
     26  N         47.2150  -13.0600    3.4000 N.3   208  SER208     -0.1217
     27  CA        45.8390  -12.9790    2.9290 C.3   208  SER208      0.1889
     28  C         45.5240  -13.8690    1.7350 C.2   208  SER208      0.2288
     29  O         46.3380  -14.1440    0.8620 O.2   208  SER208     -0.2866
     30  CB        45.4830  -11.5320    2.5820 C.3   208  SER208      0.2089
     31  OG        46.3230  -11.0300    1.5620 O.3   208  SER208     -0.2183
     32  N         42.4010  -14.1780   -1.2100 N.3   210  VAL210     -0.1245
     33  CA        41.1460  -13.6760   -1.7660 C.3   210  VAL210      0.1561
     34  C         40.3140  -14.8380   -2.3100 C.2   210  VAL210      0.2260
     35  O         40.7710  -15.7010   -3.0490 O.2   210  VAL210     -0.2867
     36  CB        41.2980  -12.6120   -2.8600 C.3   210  VAL210      0.0252
     37  CG1       39.9450  -12.0110   -3.2290 C.3   210  VAL210      0.0019
     38  CG2       42.2560  -11.5150   -2.4220 C.3   210  VAL210      0.0019
     39  N         38.4190  -10.9660    0.6340 N.3   221  PRO221     -0.2116
     40  CA        39.7520  -11.1780    1.1680 C.3   221  PRO221      0.1372
     41  C         39.7040  -11.6120    2.6240 C.2   221  PRO221      0.2244
     42  O         38.8840  -11.1610    3.4210 O.2   221  PRO221     -0.2868
     43  CB        40.4640   -9.8450    1.0190 C.3   221  PRO221      0.0268
     44  CG        39.6780   -9.0740    0.0240 C.3   221  PRO221      0.0207
     45  CD        38.2690   -9.5960    0.0850 C.3   221  PRO221      0.0892
     46  N         42.2600  -12.0770    5.9320 N.3   223  ASN223     -0.1240
     47  CA        43.5730  -11.7690    6.4730 C.3   223  ASN223      0.1653
     48  C         43.8790  -12.5120    7.7730 C.2   223  ASN223      0.2266
     49  O         43.0390  -13.0070    8.5080 O.2   223  ASN223     -0.2867
     50  CB        43.7500  -10.2750    6.7380 C.3   223  ASN223      0.1155
     51  CG        43.6850   -9.4000    5.5110 C.2   223  ASN223      0.2627
     52  OD1       43.8690   -9.8310    4.3760 O.2   223  ASN223     -0.2716
     53  ND2       43.4160   -8.1160    5.7330 N.am  223  ASN223     -0.0877
     54  N         49.0910   -5.0800   12.3850 N.3   228  GLN228     -0.1245
     55  CA        47.7980   -4.4440   12.2450 C.3   228  GLN228      0.1566
     56  C         46.6020   -5.3730   12.3400 C.2   228  GLN228      0.2260
     57  O         45.5770   -5.0290   12.9330 O.2   228  GLN228     -0.2867
     58  CB        47.7880   -3.7470   10.8710 C.3   228  GLN228      0.0367
     59  CG        47.8060   -2.2290   10.9910 C.3   228  GLN228      0.0905
     60  CD        46.3810   -1.7050   11.0580 C.2   228  GLN228      0.2608
     61  OE1       45.4670   -2.3860   11.5230 O.2   228  GLN228     -0.2717
     62  NE2       46.1840   -0.4850   10.5740 N.am  228  GLN228     -0.0878
     63  N         37.2890   -5.9600    8.4840 N.3   242  GLN242     -0.1231
     64  CA        38.2530   -4.8830    8.6350 C.3   242  GLN242      0.1698
     65  C         37.8920   -3.6870    7.7580 C.2   242  GLN242      0.2592
     66  O         37.9160   -2.5570    8.2510 O.2   242  GLN242     -0.2718
     67  CB        39.6650   -5.3570    8.2790 C.3   242  GLN242      0.0381
     68  CG        40.7270   -4.2830    8.4600 C.3   242  GLN242      0.0905
     69  CD        41.8740   -4.4370    7.4820 C.2   242  GLN242      0.2608
     70  OE1       41.6640   -4.7200    6.3020 O.2   242  GLN242     -0.2717
     71  NE2       43.0970   -4.2480    7.9640 N.am  242  GLN242     -0.0878
     72  N         37.5970   -3.9310    6.4790 N.am  243  HIS243     -0.1976
     73  CA        37.2000   -2.8200    5.6180 C.3   243  HIS243      0.1656
     74  C         36.2770   -3.2190    4.4740 C.2   243  HIS243      0.2291
     75  O         36.2290   -4.3410    3.9890 O.2   243  HIS243     -0.2864
     76  CB        38.3990   -2.0490    5.0960 C.3   243  HIS243      0.0771
     77  CG        39.2380   -2.5850    3.9900 C.ar  243  HIS243      0.0820
     78  ND1       40.4030   -3.2890    4.2160 N.ar  243  HIS243     -0.2267
     79  CD2       39.1180   -2.5020    2.6410 C.ar  243  HIS243      0.1154
     80  CE1       40.9540   -3.6240    3.0650 C.ar  243  HIS243      0.1986
     81  NE2       40.1910   -3.1610    2.0910 N.ar  243  HIS243     -0.2212
     82  N         43.5390    8.9130    5.1410 N.3   266  LEU266     -0.1245
     83  CA        44.8560    8.7320    5.7540 C.3   266  LEU266      0.1561
     84  C         45.8710    9.7020    5.1670 C.2   266  LEU266      0.2260
     85  O         45.6980   10.2500    4.0800 O.2   266  LEU266     -0.2867
     86  CB        45.2880    7.2720    5.6540 C.3   266  LEU266      0.0270
     87  CG        44.3970    6.2760    6.4010 C.3   266  LEU266      0.0019
     88  CD1       44.8710    4.8540    6.1840 C.3   266  LEU266      0.0001
     89  CD2       44.2770    6.6050    7.8770 C.3   266  LEU266      0.0001
     90  N         46.0820    7.1410   -3.6560 N.3   300  LEU300     -0.1245
     91  CA        47.1970    6.2450   -3.9300 C.3   300  LEU300      0.1561
     92  C         47.0180    5.5430   -5.2700 C.2   300  LEU300      0.2260
     93  O         45.9070    5.3820   -5.7730 O.2   300  LEU300     -0.2867
     94  CB        47.3340    5.2130   -2.8100 C.3   300  LEU300      0.0270
     95  CG        47.4580    5.7630   -1.3880 C.3   300  LEU300      0.0019
     96  CD1       47.2330    4.6580   -0.3680 C.3   300  LEU300      0.0001
     97  CD2       48.8080    6.4270   -1.1700 C.3   300  LEU300      0.0001
     98  N         43.1590    4.4820   -5.3010 N.3   311  GLN311     -0.1245
     99  CA        42.8310    3.8690   -4.0100 C.3   311  GLN311      0.1566
    100  C         42.9250    4.8780   -2.8820 C.2   311  GLN311      0.2260
    101  O         43.8750    5.6690   -2.8810 O.2   311  GLN311     -0.2867
    102  CB        43.8570    2.7480   -3.8190 C.3   311  GLN311      0.0367
    103  CG        43.4880    1.7070   -2.7910 C.3   311  GLN311      0.0905
    104  CD        44.4680    0.5490   -2.7940 C.2   311  GLN311      0.2608
    105  OE1       45.6810    0.7350   -2.7460 O.2   311  GLN311     -0.2717
    106  NE2       43.8970   -0.6460   -2.8530 N.am  311  GLN311     -0.0878
    107  N         41.8260    5.4500    1.6030 N.3   313  PHE313     -0.1241
    108  CA        41.2370    4.9370    2.8220 C.3   313  PHE313      0.1605
    109  C         40.7630    6.0200    3.7810 C.2   313  PHE313      0.2264
    110  O         41.4960    6.9600    4.0800 O.2   313  PHE313     -0.2867
    111  CB        42.2510    4.0810    3.6140 C.3   313  PHE313      0.0534
    112  CG        42.7260    2.9540    2.7370 C.ar  313  PHE313     -0.0203
    113  CD1       43.9560    3.0220    2.1140 C.ar  313  PHE313     -0.0042
    114  CD2       41.9000    1.8690    2.5050 C.ar  313  PHE313     -0.0042
    115  CE1       44.3770    1.9950    1.2900 C.ar  313  PHE313     -0.0003
    116  CE2       42.3190    0.8420    1.6840 C.ar  313  PHE313     -0.0003
    117  CZ        43.5560    0.9060    1.0750 C.ar  313  PHE313     -0.0000
    118  N         37.2320    0.3790    8.7610 N.3   324  PHE324     -0.1241
    119  CA        37.4350    1.5870    7.9590 C.3   324  PHE324      0.1605
    120  C         36.9140    1.3600    6.5440 C.2   324  PHE324      0.2264
    121  O         36.4740    0.2460    6.2430 O.2   324  PHE324     -0.2867
    122  CB        38.8900    2.0300    7.9860 C.3   324  PHE324      0.0534
    123  CG        39.9020    1.0530    7.4690 C.ar  324  PHE324     -0.0203
    124  CD1       40.2120    1.0290    6.1190 C.ar  324  PHE324     -0.0042
    125  CD2       40.5550    0.1700    8.3120 C.ar  324  PHE324     -0.0042
    126  CE1       41.1440    0.1420    5.6170 C.ar  324  PHE324     -0.0003
    127  CE2       41.4890   -0.7210    7.8180 C.ar  324  PHE324     -0.0003
    128  CZ        41.7830   -0.7350    6.4690 C.ar  324  PHE324     -0.0000
    129  N         37.2510    1.8800    2.1020 N.3   326  GLU326     -0.1245
    130  CA        38.1300    2.1330    0.9650 C.3   326  GLU326      0.1567
    131  C         37.3240    2.6720   -0.2130 C.2   326  GLU326      0.2260
    132  O         36.2320    2.1820   -0.4980 O.2   326  GLU326     -0.2867
    133  CB        38.8770    0.8640    0.5600 C.3   326  GLU326      0.0388
    134  CG        39.7700    0.9780   -0.6610 C.3   326  GLU326      0.1160
    135  CD        40.5130   -0.3020   -0.9880 C.2   326  GLU326      0.3649
    136  OE1       40.3930   -1.2900   -0.2330 O.co2 326  GLU326     -0.2457
    137  OE2       41.2330   -0.3280   -2.0090 O.co2 326  GLU326     -0.2457
    138  N         44.8050   -5.2000   -5.5080 N.3   336  PHE336     -0.1227
    139  CA        44.1690   -4.6050   -4.3410 C.3   336  PHE336      0.1736
    140  C         45.0510   -3.5830   -3.6380 C.2   336  PHE336      0.2596
    141  O         44.6980   -3.1390   -2.5380 O.2   336  PHE336     -0.2718
    142  CB        43.7340   -5.6890   -3.3400 C.3   336  PHE336      0.0547
    143  CG        42.6940   -6.6330   -3.8810 C.ar  336  PHE336     -0.0202
    144  CD1       43.0760   -7.8350   -4.4550 C.ar  336  PHE336     -0.0042
    145  CD2       41.3500   -6.3070   -3.8570 C.ar  336  PHE336     -0.0042
    146  CE1       42.1390   -8.7010   -4.9820 C.ar  336  PHE336     -0.0003
    147  CE2       40.4060   -7.1720   -4.3750 C.ar  336  PHE336     -0.0003
    148  CZ        40.8000   -8.3700   -4.9380 C.ar  336  PHE336     -0.0000
    149  N         46.1570   -3.1680   -4.2430 N.am  337  GLY337     -0.1942
    150  CA        46.9460   -2.0590   -3.7140 C.3   337  GLY337      0.2014
    151  C         48.2370   -2.5310   -3.0620 C.2   337  GLY337      0.2638
    152  O         48.9430   -1.7930   -2.3770 O.2   337  GLY337     -0.2714
    153  N         48.5880   -3.7820   -3.3210 N.am  338  ALA338     -0.1977
    154  CA        49.7390   -4.4610   -2.7600 C.3   338  ALA338      0.1597
    155  C         51.0120   -3.6330   -2.7170 C.2   338  ALA338      0.2287
    156  O         51.6580   -3.5360   -1.6690 O.2   338  ALA338     -0.2864
    157  CB        49.9990   -5.7450   -3.5490 C.3   338  ALA338      0.0319
    158  N         51.3110   -0.4700   -2.5890 N.3   340  ASN340     -0.1225
    159  CA        51.1800    0.6680   -1.6970 C.3   340  ASN340      0.1785
    160  C         51.5850    0.4060   -0.2620 C.2   340  ASN340      0.2597
    161  O         52.0360    1.4000    0.3410 O.2   340  ASN340     -0.2718
    162  CB        49.7780    1.2820   -1.8090 C.3   340  ASN340      0.1169
    163  CG        49.6290    2.0340   -3.1230 C.2   340  ASN340      0.2627
    164  OD1       50.5620    2.6970   -3.5790 O.2   340  ASN340     -0.2716
    165  ND2       48.4570    1.9260   -3.7340 N.am  340  ASN340     -0.0877
    166  N         51.5510   -0.7840    0.3310 N.am  341  PHE341     -0.1976
    167  CA        52.1810   -0.9790    1.6370 C.3   341  PHE341      0.1639
    168  C         53.5630   -0.3330    1.6780 C.2   341  PHE341      0.2290
    169  O         53.9340    0.5640    2.4140 O.2   341  PHE341     -0.2864
    170  CB        52.4000   -2.4620    1.9830 C.3   341  PHE341      0.0560
    171  CG        51.0980   -3.0880    2.3930 C.ar  341  PHE341     -0.0200
    172  CD1       50.2970   -3.6590    1.4210 C.ar  341  PHE341     -0.0042
    173  CD2       50.6730   -3.0780    3.7080 C.ar  341  PHE341     -0.0042
    174  CE1       49.0850   -4.2300    1.7580 C.ar  341  PHE341     -0.0003
    175  CE2       49.4610   -3.6480    4.0500 C.ar  341  PHE341     -0.0003
    176  CZ        48.6700   -4.2230    3.0750 C.ar  341  PHE341     -0.0000
@<TRIPOS>BOND
     1    93    92    2
     2   138   139    1
     3    98    99    1
     4    92    91    1
     5   146   148   ar
     6   146   144   ar
     7   148   147   ar
     8   144   143   ar
     9   147   145   ar
    10   139   140    1
    11   139   142    1
    12   149   150    1
    13   149   140   am
    14    99   102    1
    15    99   100    1
    16    91    90    1
    17    91    94    1
    18   143   145   ar
    19   143   142    1
    20   102   103    1
    21   165   163   am
    22   150   151    1
    23   140   141    2
    24   164   163    2
    25   157   154    1
    26   153   151   am
    27   153   154    1
    28    37    36    1
    29   163   162    1
    30   151   152    2
    31    35    34    2
    32   100   101    2
    33    36    38    1
    34    36    33    1
    35   106   104   am
    36    94    95    1
    37   104   103    1
    38   104   105    2
    39   154   155    1
    40     7     9   ar
    41     7     6   ar
    42   155   156    2
    43     1     2    1
    44   158   159    1
    45    34    33    1
    46     9    10   ar
    47     5     6    1
    48     5     2    1
    49   137   135   ar
    50     6     8   ar
    51   162   159    1
    52     2     3    1
    53    33    32    1
    54   159   160    1
    55    95    97    1
    56    95    96    1
    57    10     8   ar
    58   135   134    1
    59   135   136   ar
    60   134   133    1
    61   132   131    2
    62     3     4    2
    63   160   166   am
    64   160   161    2
    65   131   130    1
    66    44    45    1
    67    44    43    1
    68    45    39    1
    69   166   167    1
    70   133   130    1
    71    39    40    1
    72    29    28    2
    73   130   129    1
    74    43    40    1
    75   117   115   ar
    76   117   116   ar
    77    40    41    1
    78   115   113   ar
    79   172   174   ar
    80   172   171   ar
    81    31    30    1
    82   107   108    1
    83   167   168    1
    84   167   170    1
    85   168   169    2
    86   116   114   ar
    87    28    27    1
    88   174   176   ar
    89   170   171    1
    90    81    79   ar
    91    81    80   ar
    92   113   112   ar
    93   171   173   ar
    94   114   112   ar
    95    30    27    1
    96    17    15    1
    97    41    42    2
    98    79    77   ar
    99   112   111    1
   100   108   111    1
   101   108   109    1
   102    27    26    1
   103    80    78   ar
   104   176   175   ar
   105    11    12    1
   106   173   175   ar
   107   109   110    2
   108    75    74    2
   109    77    78   ar
   110    77    76    1
   111    12    15    1
   112    12    13    1
   113    15    16    1
   114    85    84    2
   115    52    51    2
   116    74    73    1
   117    21    20    2
   118    76    73    1
   119    82    83    1
   120    84    83    1
   121    25    23    1
   122    13    14    2
   123    51    53   am
   124    51    50    1
   125   126   124   ar
   126   126   128   ar
   127    73    72    1
   128    23    22    1
   129    23    24    1
   130    86    83    1
   131    86    87    1
   132    46    47    1
   133    20    19    1
   134   124   123   ar
   135    88    87    1
   136   121   120    2
   137    70    69    2
   138    22    19    1
   139    87    89    1
   140   128   127   ar
   141    47    50    1
   142    47    48    1
   143    72    65   am
   144   120   119    1
   145    19    18    1
   146   123   122    1
   147   123   125   ar
   148    69    71   am
   149    69    68    1
   150    65    66    2
   151    65    64    1
   152    48    49    2
   153   127   125   ar
   154   119   122    1
   155   119   118    1
   156    67    68    1
   157    67    64    1
   158    63    64    1
   159    62    60   am
   160    58    59    1
   161    58    55    1
   162    59    60    1
   163    60    61    2
   164    55    56    1
   165    55    54    1
   166    56    57    2
