@<TRIPOS>MOLECULE
tmp/1sqlM01.pdb
 78 72 0 0 0
SMALL
GASTEIGER

@<TRIPOS>ATOM
      1  N         32.6390   49.3000   72.1330 N.3    17  ALA17      -0.1231
      2  CA        32.6830   50.0250   73.4020 C.3    17  ALA17       0.1694
      3  C         32.2990   51.4950   73.2130 C.2    17  ALA17       0.2591
      4  O         31.6800   52.1000   74.0910 O.2    17  ALA17      -0.2718
      5  CB        34.0790   49.9220   74.0170 C.3    17  ALA17       0.0304
      6  N         32.6830   52.0630   72.0710 N.am   18  ILE18      -0.1980
      7  CA        32.3690   53.4510   71.7500 C.3    18  ILE18       0.1595
      8  C         30.8560   53.5570   71.4970 C.2    18  ILE18       0.2287
      9  O         30.2630   52.7090   70.8200 O.2    18  ILE18      -0.2864
     10  CB        33.1280   53.9210   70.4650 C.3    18  ILE18       0.0276
     11  CG1       34.6290   53.6680   70.6050 C.3    18  ILE18       0.0022
     12  CG2       32.8860   55.4020   70.2150 C.3    18  ILE18       0.0022
     13  CD1       35.2860   54.4390   71.7270 C.3    18  ILE18       0.0001
     14  N         29.6170   53.7570   67.9190 N.3    21  GLU21      -0.1245
     15  CA        29.6520   52.4820   67.2030 C.3    21  GLU21       0.1567
     16  C         28.3530   51.7100   67.4030 C.2    21  GLU21       0.2260
     17  O         27.8970   50.9970   66.5060 O.2    21  GLU21      -0.2867
     18  CB        30.8100   51.6040   67.6900 C.3    21  GLU21       0.0388
     19  CG        32.1960   52.0700   67.3120 C.3    21  GLU21       0.1160
     20  CD        33.2670   51.1310   67.8390 C.2    21  GLU21       0.3649
     21  OE1       33.5250   51.1400   69.0640 O.co2  21  GLU21      -0.2457
     22  OE2       33.8370   50.3660   67.0280 O.co2  21  GLU21      -0.2457
     23  N         29.8330   45.0600   74.0870 N.3    70  ASN70      -0.1225
     24  CA        30.9770   45.9470   74.0410 C.3    70  ASN70       0.1785
     25  C         32.2030   45.3520   73.3490 C.2    70  ASN70       0.2597
     26  O         32.9260   46.0590   72.6370 O.2    70  ASN70      -0.2718
     27  CB        31.3860   46.3660   75.4580 C.3    70  ASN70       0.1169
     28  CG        30.3860   47.3020   76.1140 C.2    70  ASN70       0.2627
     29  OD1       29.7740   48.1410   75.4540 O.2    70  ASN70      -0.2716
     30  ND2       30.2380   47.1770   77.4280 N.am   70  ASN70      -0.0877
     31  N         32.4290   44.0540   73.5500 N.am   71  LEU71      -0.1966
     32  CA        33.6180   43.4040   73.0130 C.3    71  LEU71       0.1728
     33  C         33.4370   42.2760   72.0020 C.2    71  LEU71       0.2616
     34  O         32.4380   41.5490   72.0070 O.2    71  LEU71      -0.2715
     35  CB        34.4650   42.8630   74.1780 C.3    71  LEU71       0.0311
     36  CG        34.6800   43.7630   75.4080 C.3    71  LEU71       0.0022
     37  CD1       35.3860   42.9840   76.5040 C.3    71  LEU71       0.0001
     38  CD2       35.4840   44.9840   75.0160 C.3    71  LEU71       0.0001
     39  N         34.4380   42.1340   71.1390 N.am   72  LEU72      -0.1963
     40  CA        34.4340   41.0730   70.1570 C.3    72  LEU72       0.1728
     41  C         34.5590   39.7850   70.9540 C.2    72  LEU72       0.2616
     42  O         33.9380   38.7800   70.6100 O.2    72  LEU72      -0.2715
     43  CB        35.6120   41.2210   69.1930 C.3    72  LEU72       0.0311
     44  CG        35.5190   42.4570   68.2960 C.3    72  LEU72       0.0022
     45  CD1       36.6580   42.4330   67.2860 C.3    72  LEU72       0.0001
     46  CD2       34.1590   42.4820   67.5900 C.3    72  LEU72       0.0001
     47  N         35.3450   39.8360   72.0300 N.am   73  GLU73      -0.1977
     48  CA        35.5500   38.6740   72.8940 C.3    73  GLU73       0.1602
     49  C         34.2270   38.0880   73.3330 C.2    73  GLU73       0.2287
     50  O         34.0320   36.8660   73.3170 O.2    73  GLU73      -0.2864
     51  CB        36.3540   39.0400   74.1570 C.3    73  GLU73       0.0415
     52  CG        37.8550   39.2330   73.9430 C.3    73  GLU73       0.1163
     53  CD        38.2270   40.6370   73.5120 C.2    73  GLU73       0.3649
     54  OE1       37.3770   41.3320   72.9190 O.co2  73  GLU73      -0.2457
     55  OE2       39.3820   41.0450   73.7540 O.co2  73  GLU73      -0.2457
     56  N         37.1840   42.8800   63.1580 N.3    99  LYS99      -0.1245
     57  CA        36.6370   44.1500   62.6870 C.3    99  LYS99       0.1561
     58  C         37.5290   44.6330   61.5420 C.2    99  LYS99       0.2260
     59  O         38.6760   45.0090   61.7640 O.2    99  LYS99      -0.2867
     60  CB        36.6580   45.2100   63.7950 C.3    99  LYS99       0.0271
     61  CG        35.5710   45.0800   64.8370 C.3    99  LYS99       0.0035
     62  CD        35.6610   46.2290   65.8270 C.3    99  LYS99       0.0206
     63  CE        34.6140   46.1180   66.9230 C.3    99  LYS99       0.1093
     64  NZ        34.7480   47.2400   67.9030 N.3    99  LYS99      -0.1314
     65  N         38.2960   49.5680   61.8210 N.3   102  VAL102     -0.1245
     66  CA        38.3880   50.0310   63.1900 C.3   102  VAL102      0.1561
     67  C         38.3210   51.5510   63.2500 C.2   102  VAL102      0.2260
     68  O         39.1540   52.2410   62.6640 O.2   102  VAL102     -0.2867
     69  CB        39.6950   49.5340   63.8160 C.3   102  VAL102      0.0252
     70  CG1       39.6820   49.7560   65.3310 C.3   102  VAL102      0.0019
     71  CG2       39.8900   48.0720   63.4690 C.3   102  VAL102      0.0019
     72  N         39.7490   38.7220   67.4530 N.3   114  VAL114     -0.1245
     73  CA        40.0590   37.7220   68.4500 C.3   114  VAL114      0.1561
     74  C         39.9800   36.3420   67.8240 C.2   114  VAL114      0.2260
     75  O         39.3600   36.1560   66.7820 O.2   114  VAL114     -0.2867
     76  CB        39.0820   37.8230   69.6390 C.3   114  VAL114      0.0252
     77  CG1       39.1600   39.1960   70.2360 C.3   114  VAL114      0.0019
     78  CG2       37.6660   37.5490   69.1830 C.3   114  VAL114      0.0019
@<TRIPOS>BOND
     1    58    59    2
     2    58    57    1
     3    65    66    1
     4    68    67    2
     5    57    56    1
     6    57    60    1
     7    66    67    1
     8    66    69    1
     9    71    69    1
    10    60    61    1
    11    69    70    1
    12    61    62    1
    13    62    63    1
    14    17    16    2
    15    75    74    2
    16    63    64    1
    17    22    20   ar
    18    15    16    1
    19    15    18    1
    20    15    14    1
    21    45    44    1
    22    19    18    1
    23    19    20    1
    24    72    73    1
    25    46    44    1
    26    74    73    1
    27    20    21   ar
    28    44    43    1
    29    73    76    1
    30    78    76    1
    31    43    40    1
    32    76    77    1
    33    40    41    1
    34    40    39    1
    35    12    10    1
    36    10    11    1
    37    10     7    1
    38    11    13    1
    39    42    41    2
    40     9     8    2
    41    41    47   am
    42    39    33   am
    43     8     7    1
    44     7     6    1
    45    33    34    2
    46    33    32    1
    47    47    48    1
    48     6     3   am
    49     1     2    1
    50    26    25    2
    51    48    49    1
    52    48    51    1
    53    54    53   ar
    54    32    31    1
    55    32    35    1
    56     3     2    1
    57     3     4    2
    58    50    49    2
    59    25    31   am
    60    25    24    1
    61     2     5    1
    62    53    55   ar
    63    53    52    1
    64    52    51    1
    65    24    23    1
    66    24    27    1
    67    35    36    1
    68    38    36    1
    69    36    37    1
    70    29    28    2
    71    27    28    1
    72    28    30   am
