@<TRIPOS>MOLECULE
tmp/1sqoA00.pdb
 148 146 0 0 0
SMALL
GASTEIGER

@<TRIPOS>ATOM
      1  N         22.9480    9.4260   24.8340 N.3    46  HIS46      -0.1241
      2  CA        24.0810    9.8290   25.7400 C.3    46  HIS46       0.1621
      3  C         24.2930    8.9130   26.9310 C.2    46  HIS46       0.2264
      4  O         25.4160    8.8380   27.4830 O.2    46  HIS46      -0.2867
      5  CB        24.0500   11.3160   26.2340 C.3    46  HIS46       0.0745
      6  CG        23.2850   11.5670   27.5100 C.ar   46  HIS46       0.0817
      7  ND1       22.1280   12.3140   27.5300 N.ar   46  HIS46      -0.2268
      8  CD2       23.5790   11.2770   28.8080 C.ar   46  HIS46       0.1154
      9  CE1       21.7420   12.4930   28.7880 C.ar   46  HIS46       0.1986
     10  NE2       22.6020   11.8700   29.5770 N.ar   46  HIS46      -0.2212
     11  N         19.3470   13.0300   41.2070 N.3   142  LYS142     -0.1245
     12  CA        19.6680   13.7020   42.4280 C.3   142  LYS142      0.1561
     13  C         18.5840   14.6390   42.9640 C.2   142  LYS142      0.2260
     14  O         17.8580   15.2050   42.1090 O.2   142  LYS142     -0.2867
     15  CB        20.9910   14.4660   42.2430 C.3   142  LYS142      0.0271
     16  CG        22.1240   13.5450   41.9290 C.3   142  LYS142      0.0035
     17  CD        23.3910   14.2810   41.6340 C.3   142  LYS142      0.0206
     18  CE        24.4670   13.2800   41.2250 C.3   142  LYS142      0.1093
     19  NZ        25.7520   13.9870   41.2590 N.3   142  LYS142     -0.1314
     20  N         21.7120   19.4680   43.7320 N.3   145  SER145     -0.1217
     21  CA        22.8310   19.4340   42.7830 C.3   145  SER145      0.1889
     22  C         24.1560   18.9850   43.4280 C.2   145  SER145      0.2288
     23  O         25.0250   18.4740   42.7420 O.2   145  SER145     -0.2866
     24  CB        22.9800   20.8380   42.1430 C.3   145  SER145      0.2089
     25  OG        21.7270   21.2900   41.6010 O.3   145  SER145     -0.2183
     26  N         13.0320   20.5970   39.4190 N.3   192  ASP192     -0.1225
     27  CA        13.5060   20.2860   38.0690 C.3   192  ASP192      0.1805
     28  C         14.0520   18.8260   38.0110 C.2   192  ASP192      0.2598
     29  O         14.0330   18.2420   39.0800 O.2   192  ASP192     -0.2718
     30  CB        14.7500   21.2150   37.8980 C.3   192  ASP192      0.1424
     31  CG        15.2580   21.4470   36.4480 C.2   192  ASP192      0.3668
     32  OD1       14.6410   20.9500   35.4570 O.co2 192  ASP192     -0.2456
     33  OD2       16.2550   22.1650   36.2460 O.co2 192  ASP192     -0.2456
     34  N         14.4140   18.4210   36.8240 N.am  193  SER193     -0.1938
     35  CA        15.0990   17.1190   36.6200 C.3   193  SER193      0.2055
     36  C         16.5790   17.4830   36.9080 C.2   193  SER193      0.2643
     37  O         16.9470   18.6640   37.0190 O.2   193  SER193     -0.2714
     38  CB        14.9440   16.6200   35.1880 C.3   193  SER193      0.2130
     39  OG        15.0790   17.4870   34.0440 O.3   193  SER193     -0.2179
     40  N         17.4330   16.4720   37.1130 N.am  194  CYS194     -0.1953
     41  CA        18.8050   16.6830   37.4220 C.3   194  CYS194      0.1843
     42  C         19.5110   15.4030   36.9630 C.2   194  CYS194      0.2625
     43  O         18.8540   14.4600   36.4540 O.2   194  CYS194     -0.2714
     44  CB        18.9130   16.8580   38.9460 C.3   194  CYS194      0.0997
     45  SG        20.5070   17.5820   39.5700 S.3   194  CYS194     -0.0797
     46  N         20.8170   15.4200   37.0310 N.am  195  GLN195     -0.1963
     47  CA        21.6640   14.2170   36.6610 C.3   195  GLN195      0.1733
     48  C         21.0500   12.9540   37.2760 C.2   195  GLN195      0.2616
     49  O         20.6490   12.9340   38.4430 O.2   195  GLN195     -0.2715
     50  CB        23.0210   14.4830   37.3130 C.3   195  GLN195      0.0408
     51  CG        24.0230   13.3640   37.0810 C.3   195  GLN195      0.0908
     52  CD        25.3860   13.8550   37.2580 C.2   195  GLN195      0.2608
     53  OE1       25.7090   14.4580   38.2920 O.2   195  GLN195     -0.2717
     54  NE2       26.2270   13.6650   36.2150 N.am  195  GLN195     -0.0878
     55  N         21.0450   11.8420   36.5460 N.am  196  GLY196     -0.1955
     56  CA        20.4490   10.6170   37.0670 C.3   196  GLY196      0.1869
     57  C         19.0500   10.4910   36.5050 C.2   196  GLY196      0.2309
     58  O         18.5170    9.3950   36.3700 O.2   196  GLY196     -0.2863
     59  N         18.3000   11.5710   33.3610 N.3   198  SER198     -0.1273
     60  CA        18.3750   11.4400   31.8330 C.3   198  SER198      0.1575
     61  C         17.6860   10.1670   31.2740 C.3   198  SER198      0.2036
     62  O         17.6620    9.1990   32.0590 O.3   198  SER198     -0.2187
     63  CB        19.8400   11.4180   31.3800 C.3   198  SER198      0.2036
     64  OG        20.4910   12.6580   31.6260 O.3   198  SER198     -0.2187
     65  N         14.3000   13.2470   28.7270 N.3   216  VAL216     -0.1231
     66  CA        15.2860   14.0910   29.4950 C.3   216  VAL216      0.1692
     67  C         16.6350   13.9760   28.8080 C.2   216  VAL216      0.2593
     68  O         17.2320   12.9230   28.5220 O.2   216  VAL216     -0.2718
     69  CB        15.3620   13.7160   31.0230 C.3   216  VAL216      0.0266
     70  CG1       16.4350   14.6630   31.7420 C.3   216  VAL216      0.0020
     71  CG2       13.9730   13.8810   31.7170 C.3   216  VAL216      0.0020
     72  N         17.2590   15.1500   28.4950 N.am  217  SER217     -0.1938
     73  CA        18.4790   15.1440   27.8110 C.3   217  SER217      0.2055
     74  C         19.5640   15.9860   28.4660 C.2   217  SER217      0.2643
     75  O         20.6090   15.4200   28.7960 O.2   217  SER217     -0.2714
     76  CB        18.2180   15.6200   26.3710 C.3   217  SER217      0.2130
     77  OG        19.3140   15.6360   25.4520 O.3   217  SER217     -0.2179
     78  N         19.3620   17.3170   28.6300 N.am  218  TRP218     -0.1959
     79  CA        20.4150   18.1260   29.2230 C.3   218  TRP218      0.1771
     80  C         19.9990   19.4200   29.9290 C.2   218  TRP218      0.2620
     81  O         18.8650   19.8410   29.7030 O.2   218  TRP218     -0.2715
     82  CB        21.4440   18.4060   28.1140 C.3   218  TRP218      0.0590
     83  CG        20.9740   19.2820   26.8780 C.ar  218  TRP218      0.0006
     84  CD1       20.4540   18.8360   25.6910 C.ar  218  TRP218      0.0946
     85  CD2       21.1120   20.7020   26.7470 C.ar  218  TRP218      0.0152
     86  NE1       20.2660   19.8970   24.8130 N.ar  218  TRP218     -0.2442
     87  CE2       20.6570   21.0560   25.4470 C.ar  218  TRP218      0.0810
     88  CE3       21.5820   21.7160   27.6050 C.ar  218  TRP218      0.0012
     89  CZ2       20.6560   22.3800   24.9830 C.ar  218  TRP218      0.0191
     90  CZ3       21.5830   23.0480   27.1350 C.ar  218  TRP218      0.0001
     91  CH2       21.1200   23.3580   25.8420 C.ar  218  TRP218      0.0015
     92  N         20.9370   20.0240   30.6890 N.am  219  GLY219     -0.1940
     93  CA        20.6410   21.2910   31.3700 C.3   219  GLY219      0.2014
     94  C         21.8450   21.7930   32.1530 C.2   219  GLY219      0.2639
     95  O         22.6370   20.9760   32.6280 O.2   219  GLY219     -0.2714
     96  N         21.9480   23.1510   32.2790 N.am  220  ARG220     -0.1963
     97  CA        23.0120   23.7770   33.0040 C.3   220  ARG220      0.1729
     98  C         22.5320   23.8570   34.4340 C.2   220  ARG220      0.2617
     99  O         21.5390   24.5220   34.7170 O.2   220  ARG220     -0.2715
    100  CB        23.2290   25.1820   32.4090 C.3   220  ARG220      0.0348
    101  CG        24.1260   26.0710   33.2450 C.3   220  ARG220      0.0492
    102  CD        25.6290   25.7720   33.0970 C.3   220  ARG220      0.2205
    103  NE        26.0470   24.5780   33.8330 N.pl3 220  ARG220     -0.0865
    104  CZ        26.2970   24.5290   35.1600 C.cat 220  ARG220      0.5346
    105  NH1       26.2030   25.6170   35.9240 N.pl3 220  ARG220      0.1354
    106  NH2       26.5550   23.3620   35.7410 N.pl3 220  ARG220      0.1354
    107  N         23.2430   23.1850   35.3390 N.am  221  GLY221     -0.1940
    108  CA        22.8400   23.1420   36.7310 C.3   221  GLY221      0.2014
    109  C         21.5360   22.3170   36.8240 C.2   221  GLY221      0.2639
    110  O         21.2070   21.6650   35.8380 O.2   221  GLY221     -0.2714
    111  N         20.8980   22.3350   38.0340 N.am  222  CYS222     -0.1953
    112  CA        19.5910   21.7090   38.3110 C.3   222  CYS222      0.1843
    113  C         18.8040   22.7580   39.1270 C.2   222  CYS222      0.2625
    114  O         19.2630   23.1890   40.1790 O.2   222  CYS222     -0.2714
    115  CB        19.6730   20.4010   39.0970 C.3   222  CYS222      0.0997
    116  SG        20.7570   19.2830   38.2190 S.3   222  CYS222     -0.0797
    117  N         17.6380   23.1760   38.5760 N.am  223  ALA223     -0.1977
    118  CA        16.7480   24.2040   39.1580 C.3   223  ALA223      0.1597
    119  C         17.5660   25.4890   39.3550 C.2   223  ALA223      0.2287
    120  O         17.4560   26.1310   40.4030 O.2   223  ALA223     -0.2864
    121  CB        16.2580   23.8120   40.5210 C.3   223  ALA223      0.0319
    122  N         17.8920   28.7230   33.4640 N.3   227  LYS227     -0.1231
    123  CA        18.4970   27.5420   32.7550 C.3   227  LYS227      0.1678
    124  C         17.4770   26.3770   32.8330 C.2   227  LYS227      0.2434
    125  O         17.4720   25.6280   33.8030 O.2   227  LYS227     -0.2733
    126  CB        19.7590   27.2470   33.5800 C.3   227  LYS227      0.0284
    127  CG        20.8210   28.3870   33.5780 C.3   227  LYS227      0.0035
    128  CD        21.2250   28.7760   32.1250 C.3   227  LYS227      0.0206
    129  CE        22.0800   30.0940   32.1670 C.3   227  LYS227      0.1093
    130  NZ        22.6460   30.5050   30.8820 N.3   227  LYS227     -0.1314
    131  N         16.5590   26.2880   31.8600 N.am  228  PRO228     -0.2718
    132  CA        15.5350   25.1890   31.8800 C.3   228  PRO228      0.1535
    133  C         16.1550   23.8180   31.5880 C.2   228  PRO228      0.2599
    134  O         17.3170   23.6750   31.1610 O.2   228  PRO228     -0.2715
    135  CB        14.6170   25.5620   30.7040 C.3   228  PRO228      0.0310
    136  CG        14.7640   27.1180   30.5980 C.3   228  PRO228      0.0237
    137  CD        16.2870   27.2340   30.7660 C.3   228  PRO228      0.0939
    138  N         15.3450   22.7330   31.8130 N.am  229  GLY229     -0.1941
    139  CA        15.8000   21.4190   31.4250 C.3   229  GLY229      0.2014
    140  C         15.5570   21.4080   29.9120 C.2   229  GLY229      0.2638
    141  O         14.6500   22.1130   29.3820 O.2   229  GLY229     -0.2714
    142  N         16.3590   20.6130   29.0850 N.am  230  VAL230     -0.1977
    143  CA        16.1900   20.5630   27.6910 C.3   230  VAL230      0.1596
    144  C         15.9120   19.0790   27.4190 C.2   230  VAL230      0.2287
    145  O         16.5550   18.2330   28.0930 O.2   230  VAL230     -0.2864
    146  CB        17.4460   21.0990   26.9210 C.3   230  VAL230      0.0276
    147  CG1       17.1590   21.2040   25.4020 C.3   230  VAL230      0.0022
    148  CG2       17.8450   22.5180   27.4860 C.3   230  VAL230      0.0022
@<TRIPOS>BOND
     1    86    87   ar
     2    86    84   ar
     3     1     2    1
     4    89    87   ar
     5    89    91   ar
     6   147   146    1
     7    87    85   ar
     8    77    76    1
     9    84    83   ar
    10     2     5    1
    11     2     3    1
    12    91    90   ar
    13     5     6    1
    14    76    73    1
    15    85    83   ar
    16    85    88   ar
    17    83    82    1
    18   146   148    1
    19   146   143    1
    20     3     4    2
    21    90    88   ar
    22   144   143    1
    23   144   145    2
    24     6     7   ar
    25     6     8   ar
    26     7     9   ar
    27   143   142    1
    28    73    74    1
    29    73    72    1
    30    82    79    1
    31    74    78   am
    32    74    75    2
    33    72    67   am
    34    68    67    2
    35    78    79    1
    36    65    66    1
    37     9    10   ar
    38    67    66    1
    39     8    10   ar
    40   142   140   am
    41    79    80    1
    42   141   140    2
    43    66    69    1
    44    81    80    2
    45   140   139    1
    46    80    92   am
    47   136   135    1
    48   136   137    1
    49    92    93    1
    50   135   132    1
    51   137   131    1
    52   130   129    1
    53    69    71    1
    54    69    70    1
    55   134   133    2
    56    61    60    1
    57    61    62    1
    58    93    94    1
    59    63    64    1
    60    63    60    1
    61   139   138    1
    62   133   138   am
    63   133   132    1
    64    60    59    1
    65   131   132    1
    66   131   124   am
    67   128   129    1
    68   128   127    1
    69    94    96   am
    70    94    95    2
    71    96    97    1
    72   100    97    1
    73   100   101    1
    74   123   124    1
    75   123   122    1
    76   123   126    1
    77   124   125    2
    78    97    98    1
    79   102   101    1
    80   102   103    1
    81   127   126    1
    82   103   104    2
    83    39    38    1
    84    98    99    2
    85    98   107   am
    86   104   106    1
    87   104   105    1
    88    38    35    1
    89   107   108    1
    90    32    31   ar
    91   110   109    2
    92    54    52   am
    93    33    31   ar
    94    58    57    2
    95    31    30    1
    96    43    42    2
    97    57    56    1
    98    55    56    1
    99    55    48   am
   100    35    34    1
   101    35    36    1
   102    47    46    1
   103    47    48    1
   104    47    50    1
   105   108   109    1
   106   109   111   am
   107    34    28   am
   108    36    37    2
   109    36    40   am
   110    42    46   am
   111    42    41    1
   112    51    52    1
   113    51    50    1
   114    40    41    1
   115    52    53    2
   116    48    49    2
   117    41    44    1
   118    30    27    1
   119    28    27    1
   120    28    29    2
   121   111   112    1
   122    27    26    1
   123   116   115    1
   124   116    45    1
   125   112   115    1
   126   112   113    1
   127   117   113   am
   128   117   118    1
   129    44    45    1
   130   113   114    2
   131   118   119    1
   132   118   121    1
   133   119   120    2
   134    11    12    1
   135    18    19    1
   136    18    17    1
   137    25    24    1
   138    17    16    1
   139    16    15    1
   140    14    13    2
   141    24    21    1
   142    15    12    1
   143    12    13    1
   144    23    22    2
   145    21    22    1
   146    21    20    1
