@<TRIPOS>MOLECULE
tmp/1sqpC00.pdb
 110 102 0 0 0
SMALL
GASTEIGER

@<TRIPOS>ATOM
      1  N         65.2440   73.7840  155.4280 N.3    41  ILE41      -0.1231
      2  CA        65.1870   75.2070  155.7700 C.3    41  ILE41       0.1692
      3  C         64.4410   75.4850  157.0980 C.2    41  ILE41       0.2591
      4  O         64.9510   76.2120  157.9480 O.2    41  ILE41      -0.2718
      5  CB        64.6850   76.0820  154.5180 C.3    41  ILE41       0.0266
      6  CG1       65.8720   76.8000  153.8300 C.3    41  ILE41       0.0019
      7  CG2       63.4810   77.0510  154.8400 C.3    41  ILE41       0.0020
      8  CD1       66.7410   77.7500  154.7510 C.3    41  ILE41       0.0001
      9  N         63.3340   74.7610  157.3150 N.am   42  LEU42      -0.1980
     10  CA        62.5070   74.8690  158.5170 C.3    42  LEU42       0.1596
     11  C         63.2980   74.5110  159.7600 C.2    42  LEU42       0.2287
     12  O         63.2160   75.2120  160.7790 O.2    42  LEU42      -0.2864
     13  CB        61.3230   73.9380  158.3920 C.3    42  LEU42       0.0297
     14  CG        60.0990   74.1300  159.2780 C.3    42  LEU42       0.0022
     15  CD1       59.0460   74.9390  158.5060 C.3    42  LEU42       0.0001
     16  CD2       59.5500   72.7500  159.6640 C.3    42  LEU42       0.0001
     17  N         65.8280   77.4990  160.5050 N.3    45  LEU45      -0.1231
     18  CA        65.2100   78.6790  161.1320 C.3    45  LEU45       0.1693
     19  C         64.7010   78.4460  162.5700 C.2    45  LEU45       0.2592
     20  O         64.7980   79.3360  163.4090 O.2    45  LEU45      -0.2718
     21  CB        64.1340   79.3070  160.2350 C.3    45  LEU45       0.0284
     22  CG        64.5250   79.7800  158.8140 C.3    45  LEU45       0.0019
     23  CD1       63.3360   80.4100  158.1210 C.3    45  LEU45       0.0001
     24  CD2       65.7590   80.7530  158.7580 C.3    45  LEU45       0.0001
     25  N         64.1870   77.2460  162.8520 N.am   46  THR46      -0.1953
     26  CA        63.8540   76.8670  164.2280 C.3    46  THR46       0.1897
     27  C         65.1400   76.5590  165.0190 C.2    46  THR46       0.2313
     28  O         65.3650   77.1540  166.0890 O.2    46  THR46      -0.2863
     29  CB        62.8620   75.7230  164.2780 C.3    46  THR46       0.1794
     30  OG1       63.3420   74.6360  163.4850 O.3    46  THR46      -0.2208
     31  CG2       61.5410   76.1310  163.6070 C.3    46  THR46       0.0378
     32  N         67.0590   79.9770  166.0290 N.3    49  PHE49      -0.1241
     33  CA        66.2770   80.6270  167.0690 C.3    49  PHE49       0.1605
     34  C         66.2700   79.8210  168.3860 C.2    49  PHE49       0.2264
     35  O         66.0830   80.3860  169.4580 O.2    49  PHE49      -0.2867
     36  CB        64.8610   80.8920  166.5660 C.3    49  PHE49       0.0534
     37  CG        64.7460   82.1120  165.6880 C.ar   49  PHE49      -0.0203
     38  CD1       65.0820   82.0510  164.3180 C.ar   49  PHE49      -0.0042
     39  CD2       64.2560   83.3210  166.2140 C.ar   49  PHE49      -0.0042
     40  CE1       64.9230   83.1700  163.4760 C.ar   49  PHE49      -0.0003
     41  CE2       64.1130   84.4670  165.3890 C.ar   49  PHE49      -0.0003
     42  CZ        64.4410   84.3910  164.0130 C.ar   49  PHE49      -0.0000
     43  N         56.9500   82.5100  172.8350 N.3    74  TYR74      -0.1241
     44  CA        56.6730   81.5750  171.7450 C.3    74  TYR74       0.1605
     45  C         57.8180   80.5620  171.5000 C.2    74  TYR74       0.2264
     46  O         57.8450   79.8720  170.4660 O.2    74  TYR74      -0.2867
     47  CB        56.2610   82.3260  170.4650 C.3    74  TYR74       0.0534
     48  CG        55.0820   83.2780  170.6420 C.ar   74  TYR74      -0.0201
     49  CD1       53.7470   82.8080  170.5470 C.ar   74  TYR74      -0.0009
     50  CD2       55.2910   84.6640  170.8430 C.ar   74  TYR74      -0.0009
     51  CE1       52.6340   83.7080  170.6250 C.ar   74  TYR74       0.0417
     52  CE2       54.1900   85.5700  170.9360 C.ar   74  TYR74       0.0417
     53  CZ        52.8670   85.0760  170.8240 C.ar   74  TYR74       0.1957
     54  OH        51.7940   85.9340  170.9030 O.3    74  TYR74      -0.2866
     55  N         56.7690   76.8010  170.8070 N.3    77  ILE77      -0.1245
     56  CA        56.4510   76.4410  169.4040 C.3    77  ILE77       0.1561
     57  C         57.6920   76.1480  168.6200 C.2    77  ILE77       0.2260
     58  O         57.7440   75.1260  167.9420 O.2    77  ILE77      -0.2867
     59  CB        55.6050   77.4890  168.6390 C.3    77  ILE77       0.0252
     60  CG1       54.8560   78.4210  169.5890 C.3    77  ILE77       0.0019
     61  CG2       54.6610   76.7710  167.6590 C.3    77  ILE77       0.0019
     62  CD1       54.2160   79.5830  168.9240 C.3    77  ILE77       0.0001
     63  N         58.3730   72.6860  166.9220 N.3    81  MET81      -0.1245
     64  CA        58.5370   72.7930  165.4710 C.3    81  MET81       0.1570
     65  C         59.7990   72.0830  165.0450 C.2    81  MET81       0.2261
     66  O         59.7580   71.2310  164.1620 O.2    81  MET81      -0.2867
     67  CB        58.6120   74.2390  165.0470 C.3    81  MET81       0.0387
     68  CG        57.5410   74.6290  164.1270 C.3    81  MET81       0.0595
     69  SD        56.9710   76.2740  164.4460 S.3    81  MET81      -0.1393
     70  CE        56.9790   76.9470  162.7300 C.3    81  MET81       0.0692
     71  N         51.6780   73.0980  151.8820 N.3   232  LEU232     -0.1245
     72  CA        50.5540   73.4080  152.7580 C.3   232  LEU232      0.1561
     73  C         50.1420   72.1710  153.5430 C.2   232  LEU232      0.2260
     74  O         49.8690   72.2660  154.7380 O.2   232  LEU232     -0.2867
     75  CB        49.3760   73.9330  151.9470 C.3   232  LEU232      0.0270
     76  CG        48.6430   75.1540  152.4720 C.3   232  LEU232      0.0019
     77  CD1       49.3310   76.4330  151.9810 C.3   232  LEU232      0.0001
     78  CD2       47.1990   75.1240  152.0090 C.3   232  LEU232      0.0001
     79  N         52.8720   71.5040  156.2670 N.3   235  ILE235     -0.1245
     80  CA        52.6260   72.3630  157.4240 C.3   235  ILE235      0.1561
     81  C         51.4480   71.8350  158.2510 C.2   235  ILE235      0.2260
     82  O         51.6040   71.6710  159.4520 O.2   235  ILE235     -0.2867
     83  CB        52.4770   73.8820  157.0250 C.3   235  ILE235      0.0252
     84  CG1       53.7390   74.4180  156.2730 C.3   235  ILE235      0.0019
     85  CG2       52.1700   74.7640  158.2420 C.3   235  ILE235      0.0019
     86  CD1       55.1450   74.1240  156.9480 C.3   235  ILE235      0.0001
     87  N         52.8720   68.7040  160.0060 N.3   238  LEU238     -0.1231
     88  CA        53.8310   69.1630  161.0160 C.3   238  LEU238      0.1693
     89  C         53.1490   69.9300  162.1670 C.2   238  LEU238      0.2591
     90  O         53.4910   69.7180  163.3290 O.2   238  LEU238     -0.2718
     91  CB        54.9710   69.9720  160.3680 C.3   238  LEU238      0.0284
     92  CG        56.0060   70.9070  161.0570 C.3   238  LEU238      0.0019
     93  CD1       55.5060   72.3160  161.1480 C.3   238  LEU238      0.0001
     94  CD2       56.6520   70.4330  162.3830 C.3   238  LEU238      0.0001
     95  N         52.1410   70.7490  161.8450 N.am  239  MET239     -0.1979
     96  CA        51.4640   71.5930  162.8520 C.3   239  MET239      0.1605
     97  C         50.3700   70.9200  163.6820 C.2   239  MET239      0.2287
     98  O         50.1530   71.3040  164.8360 O.2   239  MET239     -0.2864
     99  CB        51.0040   72.9310  162.2720 C.3   239  MET239      0.0413
    100  CG        52.1550   73.8300  161.8750 C.3   239  MET239      0.0598
    101  SD        52.6350   74.9110  163.1700 S.3   239  MET239     -0.1393
    102  CE        53.9830   74.2020  163.7220 C.3   239  MET239      0.0692
    103  N         50.7900   71.3570  167.5810 N.3   243  LEU243     -0.1245
    104  CA        49.7480   72.0640  168.3480 C.3   243  LEU243      0.1561
    105  C         48.7040   71.1420  169.0170 C.2   243  LEU243      0.2260
    106  O         47.8130   71.6220  169.7540 O.2   243  LEU243     -0.2867
    107  CB        49.0610   73.1440  167.4870 C.3   243  LEU243      0.0270
    108  CG        49.8960   74.1250  166.6530 C.3   243  LEU243      0.0019
    109  CD1       49.1190   74.4940  165.4270 C.3   243  LEU243      0.0001
    110  CD2       50.2550   75.3640  167.4470 C.3   243  LEU243      0.0001
@<TRIPOS>BOND
     1    71    72    1
     2    75    76    1
     3    75    72    1
     4    77    76    1
     5    78    76    1
     6    72    73    1
     7    73    74    2
     8     6     5    1
     9     6     8    1
    10     5     7    1
    11     5     2    1
    12     1     2    1
    13     2     3    1
    14    79    80    1
    15    84    86    1
    16    84    83    1
    17    83    80    1
    18    83    85    1
    19     3     9   am
    20     3     4    2
    21     9    10    1
    22    80    81    1
    23    23    22    1
    24    81    82    2
    25    13    10    1
    26    13    14    1
    27    15    14    1
    28    10    11    1
    29    24    22    1
    30    22    21    1
    31    14    16    1
    32    11    12    2
    33    87    88    1
    34    21    18    1
    35    91    88    1
    36    91    92    1
    37    17    18    1
    38    88    89    1
    39    92    93    1
    40    92    94    1
    41    18    19    1
    42    95    89   am
    43    95    96    1
    44   100    99    1
    45   100   101    1
    46    89    90    2
    47    99    96    1
    48    19    25   am
    49    19    20    2
    50    70    69    1
    51    25    26    1
    52    96    97    1
    53   101   102    1
    54    40    42   ar
    55    40    38   ar
    56    30    29    1
    57    31    29    1
    58    97    98    2
    59    42    41   ar
    60    68    69    1
    61    68    67    1
    62    66    65    2
    63    26    29    1
    64    26    27    1
    65    38    37   ar
    66    27    28    2
    67    65    64    1
    68    67    64    1
    69    41    39   ar
    70   109   108    1
    71    64    63    1
    72    37    39   ar
    73    37    36    1
    74    32    33    1
    75    36    33    1
    76   108   110    1
    77   108   107    1
    78    33    34    1
    79   107   104    1
    80   103   104    1
    81    61    59    1
    82    58    57    2
    83   104   105    1
    84    34    35    2
    85    57    56    1
    86    59    56    1
    87    59    60    1
    88    62    60    1
    89   105   106    2
    90    56    55    1
    91    47    48    1
    92    47    44    1
    93    46    45    2
    94    49    51   ar
    95    49    48   ar
    96    51    53   ar
    97    48    50   ar
    98    53    54    1
    99    53    52   ar
   100    50    52   ar
   101    45    44    1
   102    44    43    1
