@<TRIPOS>MOLECULE
tmp/1sqpC05.pdb
 248 243 0 0 0
SMALL
GASTEIGER

@<TRIPOS>ATOM
      1  N         53.9110   62.1730  139.6820 N.3    27  SER27      -0.1217
      2  CA        53.0260   61.9610  140.8120 C.3    27  SER27       0.1889
      3  C         53.2600   62.9330  141.9800 C.2    27  SER27       0.2288
      4  O         54.3390   63.5140  142.1240 O.2    27  SER27      -0.2866
      5  CB        53.2690   60.5420  141.3290 C.3    27  SER27       0.2089
      6  OG        52.1320   59.7330  141.1870 O.3    27  SER27      -0.2183
      7  N         54.1740   61.7400  144.5040 N.3    29  TRP29      -0.1241
      8  CA        55.4050   61.1150  144.9860 C.3    29  TRP29       0.1605
      9  C         56.6730   61.8880  144.6450 C.2    29  TRP29       0.2264
     10  O         57.6990   61.6780  145.2760 O.2    29  TRP29      -0.2867
     11  CB        55.5140   59.6710  144.5070 C.3    29  TRP29       0.0550
     12  CG        54.4650   58.7840  145.0970 C.ar   29  TRP29       0.0003
     13  CD1       53.3630   58.2900  144.4610 C.ar   29  TRP29       0.0946
     14  CD2       54.3760   58.3360  146.4560 C.ar   29  TRP29       0.0152
     15  NE1       52.5890   57.5720  145.3370 N.ar   29  TRP29      -0.2442
     16  CE2       53.1720   57.5950  146.5740 C.ar   29  TRP29       0.0810
     17  CE3       55.1690   58.5210  147.6100 C.ar   29  TRP29       0.0012
     18  CZ2       52.7570   57.0130  147.7820 C.ar   29  TRP29       0.0191
     19  CZ3       54.7430   57.9580  148.8210 C.ar   29  TRP29       0.0001
     20  CH2       53.5580   57.1920  148.8890 C.ar   29  TRP29       0.0015
     21  N         61.9220   59.0080  153.8090 N.3    94  TYR94      -0.1227
     22  CA        61.4470   57.6280  153.5750 C.3    94  TYR94       0.1736
     23  C         60.5560   57.4800  152.3800 C.2    94  TYR94       0.2595
     24  O         60.8600   56.6700  151.5020 O.2    94  TYR94      -0.2718
     25  CB        60.9100   56.9660  154.8500 C.3    94  TYR94       0.0548
     26  CG        61.9980   56.7930  155.9120 C.ar   94  TYR94      -0.0200
     27  CD1       63.3580   56.5030  155.5430 C.ar   94  TYR94      -0.0009
     28  CD2       61.7050   56.9610  157.2810 C.ar   94  TYR94      -0.0009
     29  CE1       64.3780   56.3880  156.5130 C.ar   94  TYR94       0.0417
     30  CE2       62.7320   56.8240  158.2790 C.ar   94  TYR94       0.0417
     31  CZ        64.0570   56.5420  157.8770 C.ar   94  TYR94       0.1957
     32  OH        65.0380   56.4140  158.8300 O.3    94  TYR94      -0.2866
     33  N         59.6200   58.4210  152.2210 N.am   95  MET95      -0.1979
     34  CA        58.8020   58.5220  150.9870 C.3    95  MET95       0.1605
     35  C         59.6840   58.6340  149.6980 C.2    95  MET95       0.2287
     36  O         59.5950   57.7690  148.7920 O.2    95  MET95      -0.2864
     37  CB        57.8220   59.7090  151.0860 C.3    95  MET95       0.0413
     38  CG        56.7480   59.5970  152.2090 C.3    95  MET95       0.0598
     39  SD        55.9810   58.0060  152.2990 S.3    95  MET95      -0.1393
     40  CE        54.7230   58.2570  153.7140 C.3    95  MET95       0.0692
     41  N         63.1360   58.0700  149.2610 N.3    97  VAL97      -0.1231
     42  CA        63.9380   56.8720  148.9420 C.3    97  VAL97       0.1692
     43  C         63.0160   55.7470  148.3490 C.2    97  VAL97       0.2593
     44  O         63.3290   55.1660  147.2880 O.2    97  VAL97      -0.2718
     45  CB        64.7530   56.3250  150.1650 C.3    97  VAL97       0.0266
     46  CG1       65.5880   55.0750  149.7650 C.3    97  VAL97       0.0020
     47  CG2       65.6800   57.3750  150.7260 C.3    97  VAL97       0.0020
     48  N         61.8480   55.5430  148.9740 N.am   98  GLY98      -0.1942
     49  CA        60.8900   54.5220  148.5440 C.3    98  GLY98       0.2014
     50  C         60.4650   54.6830  147.1010 C.2    98  GLY98       0.2638
     51  O         60.5760   53.7380  146.3070 O.2    98  GLY98      -0.2714
     52  N         60.1270   55.9270  146.7500 N.am   99  ARG99      -0.1977
     53  CA        59.7530   56.3290  145.4070 C.3    99  ARG99       0.1597
     54  C         60.8920   56.0250  144.4060 C.2    99  ARG99       0.2287
     55  O         60.6450   55.6080  143.2790 O.2    99  ARG99      -0.2864
     56  CB        59.4230   57.8310  145.4280 C.3    99  ARG99       0.0334
     57  CG        58.9420   58.4260  144.1060 C.3    99  ARG99       0.0492
     58  CD        60.0390   58.8150  143.1360 C.3    99  ARG99       0.2205
     59  NE        61.2090   59.4180  143.7910 N.pl3  99  ARG99      -0.0865
     60  CZ        61.5490   60.7160  143.6940 C.cat  99  ARG99       0.5346
     61  NH1       60.8450   61.5470  142.9060 N.pl3  99  ARG99       0.1354
     62  NH2       62.6380   61.1710  144.3400 N.pl3  99  ARG99       0.1354
     63  N         63.1500   53.6930  144.6330 N.3   101  LEU101     -0.1231
     64  CA        63.1590   52.2340  144.4120 C.3   101  LEU101      0.1693
     65  C         62.0500   51.7910  143.4920 C.2   101  LEU101      0.2592
     66  O         62.3150   51.1490  142.4780 O.2   101  LEU101     -0.2718
     67  CB        63.0710   51.4540  145.7330 C.3   101  LEU101      0.0284
     68  CG        64.1700   51.6510  146.7820 C.3   101  LEU101      0.0019
     69  CD1       63.6140   51.3570  148.1880 C.3   101  LEU101      0.0001
     70  CD2       65.4170   50.7800  146.4820 C.3   101  LEU101      0.0001
     71  N         60.8290   52.2310  143.7940 N.am  102  TYR102     -0.1962
     72  CA        59.6660   51.8390  143.0470 C.3   102  TYR102      0.1771
     73  C         59.7720   52.2070  141.5980 C.2   102  TYR102      0.2619
     74  O         59.5350   51.3640  140.7250 O.2   102  TYR102     -0.2715
     75  CB        58.4020   52.4530  143.6380 C.3   102  TYR102      0.0574
     76  CG        57.1190   51.8560  143.0680 C.ar  102  TYR102     -0.0198
     77  CD1       56.5770   52.3420  141.8730 C.ar  102  TYR102     -0.0009
     78  CD2       56.4650   50.7780  143.7090 C.ar  102  TYR102     -0.0009
     79  CE1       55.4400   51.7690  141.3030 C.ar  102  TYR102      0.0417
     80  CE2       55.3010   50.1980  143.1510 C.ar  102  TYR102      0.0417
     81  CZ        54.7940   50.7150  141.9440 C.ar  102  TYR102      0.1957
     82  OH        53.6310   50.2370  141.3990 O.3   102  TYR102     -0.2866
     83  N         60.2120   53.4380  141.3420 N.am  103  TYR103     -0.1974
     84  CA        60.1540   53.9930  140.0250 C.3   103  TYR103      0.1639
     85  C         61.4310   53.8930  139.2200 C.2   103  TYR103      0.2290
     86  O         61.4660   54.3010  138.0580 O.2   103  TYR103     -0.2864
     87  CB        59.5850   55.4040  140.0760 C.3   103  TYR103      0.0560
     88  CG        58.1030   55.4340  140.4050 C.ar  103  TYR103     -0.0198
     89  CD1       57.1550   54.9620  139.4830 C.ar  103  TYR103     -0.0009
     90  CD2       57.6460   55.8680  141.6550 C.ar  103  TYR103     -0.0009
     91  CE1       55.7570   54.9810  139.7730 C.ar  103  TYR103      0.0417
     92  CE2       56.2750   55.9620  141.9300 C.ar  103  TYR103      0.0417
     93  CZ        55.3380   55.5040  140.9780 C.ar  103  TYR103      0.1957
     94  OH        54.0110   55.5770  141.2200 O.3   103  TYR103     -0.2866
     95  N         71.1950   61.0570  153.1750 N.3   119  LEU119     -0.1245
     96  CA        70.5360   60.2770  154.2130 C.3   119  LEU119      0.1561
     97  C         71.4080   60.0330  155.4420 C.2   119  LEU119      0.2260
     98  O         71.0100   60.4110  156.5600 O.2   119  LEU119     -0.2867
     99  CB        70.0090   58.9360  153.6550 C.3   119  LEU119      0.0270
    100  CG        68.6820   58.3690  154.1460 C.3   119  LEU119      0.0019
    101  CD1       68.7540   56.8340  154.2230 C.3   119  LEU119      0.0001
    102  CD2       68.1520   58.9670  155.4550 C.3   119  LEU119      0.0001
    103  N         56.4700   58.3410  136.6280 N.3   207  PRO207     -0.2116
    104  CA        55.8490   57.0540  136.9900 C.3   207  PRO207      0.1372
    105  C         55.9980   55.8790  136.0030 C.2   207  PRO207      0.2244
    106  O         56.0260   54.7150  136.4700 O.2   207  PRO207     -0.2868
    107  CB        54.3720   57.4160  137.1570 C.3   207  PRO207      0.0268
    108  CG        54.3970   58.7920  137.6750 C.3   207  PRO207      0.0207
    109  CD        55.5590   59.4590  136.9930 C.3   207  PRO207      0.0892
    110  N         61.2850   57.0860  166.3770 N.3   271  TRP271     -0.1241
    111  CA        60.7720   56.1360  165.3640 C.3   271  TRP271      0.1605
    112  C         61.6300   55.8840  164.1070 C.2   271  TRP271      0.2264
    113  O         61.6890   54.7450  163.5970 O.2   271  TRP271     -0.2867
    114  CB        59.2990   56.4050  165.0000 C.3   271  TRP271      0.0550
    115  CG        59.0860   57.6710  164.2200 C.ar  271  TRP271      0.0003
    116  CD1       58.7330   58.8920  164.7280 C.ar  271  TRP271      0.0946
    117  CD2       59.2360   57.8550  162.8030 C.ar  271  TRP271      0.0152
    118  NE1       58.6470   59.8220  163.7190 N.ar  271  TRP271     -0.2442
    119  CE2       58.9730   59.2240  162.5280 C.ar  271  TRP271      0.0810
    120  CE3       59.5550   57.0000  161.7230 C.ar  271  TRP271      0.0012
    121  CZ2       59.0320   59.7630  161.2190 C.ar  271  TRP271      0.0191
    122  CZ3       59.6430   57.5410  160.4250 C.ar  271  TRP271      0.0001
    123  CH2       59.3650   58.9060  160.1870 C.ar  271  TRP271      0.0015
    124  N         63.7010   50.6960  162.8580 N.3   275  PHE275     -0.1241
    125  CA        63.9910   49.6340  161.8870 C.3   275  PHE275      0.1605
    126  C         65.5000   49.2170  161.8980 C.2   275  PHE275      0.2264
    127  O         65.8230   48.0150  161.9340 O.2   275  PHE275     -0.2867
    128  CB        63.4930   50.0380  160.4760 C.3   275  PHE275      0.0534
    129  CG        64.4550   50.9090  159.7060 C.ar  275  PHE275     -0.0203
    130  CD1       65.4610   50.3250  158.8700 C.ar  275  PHE275     -0.0042
    131  CD2       64.4140   52.3010  159.8400 C.ar  275  PHE275     -0.0042
    132  CE1       66.4260   51.1190  158.2170 C.ar  275  PHE275     -0.0003
    133  CE2       65.3630   53.1090  159.1790 C.ar  275  PHE275     -0.0003
    134  CZ        66.3750   52.5060  158.3590 C.ar  275  PHE275     -0.0000
    135  N         72.7150   48.0790  156.4640 N.3   296  SER296     -0.1202
    136  CA        71.2660   48.3570  156.3700 C.3   296  SER296      0.2020
    137  C         70.9220   49.6050  155.5470 C.2   296  SER296      0.2618
    138  O         69.8000   49.7140  155.0020 O.2   296  SER296     -0.2717
    139  CB        70.6430   48.4730  157.7610 C.3   296  SER296      0.2103
    140  OG        69.3060   48.9500  157.6830 O.3   296  SER296     -0.2182
    141  N         71.8510   50.5680  155.5410 N.am  297  ILE297     -0.1979
    142  CA        71.6940   51.8000  154.7840 C.3   297  ILE297      0.1595
    143  C         72.5650   51.8200  153.5160 C.2   297  ILE297      0.2287
    144  O         72.0440   52.0970  152.4370 O.2   297  ILE297     -0.2864
    145  CB        71.9160   53.0410  155.6740 C.3   297  ILE297      0.0276
    146  CG1       71.1390   52.9340  157.0110 C.3   297  ILE297      0.0022
    147  CG2       71.6160   54.3570  154.8950 C.3   297  ILE297      0.0022
    148  CD1       69.6200   53.2660  156.9530 C.3   297  ILE297      0.0001
    149  N         71.5880   50.6230  149.7640 N.3   300  LEU300     -0.1245
    150  CA        70.9820   51.4310  148.7040 C.3   300  LEU300      0.1561
    151  C         71.9550   51.7860  147.5950 C.2   300  LEU300      0.2260
    152  O         71.5460   51.9140  146.4430 O.2   300  LEU300     -0.2867
    153  CB        70.3130   52.6680  149.2490 C.3   300  LEU300      0.0270
    154  CG        69.3680   52.5380  150.4360 C.3   300  LEU300      0.0019
    155  CD1       69.3580   53.8890  151.1660 C.3   300  LEU300      0.0001
    156  CD2       67.9780   52.1350  150.0080 C.3   300  LEU300      0.0001
    157  N         55.8670   50.2080  137.7880 N.3   315  MET315     -0.1245
    158  CA        54.5150   50.5180  137.2810 C.3   315  MET315      0.1570
    159  C         53.8450   49.4240  136.4400 C.2   315  MET315      0.2261
    160  O         52.6360   49.2190  136.5640 O.2   315  MET315     -0.2867
    161  CB        54.5310   51.8140  136.4930 C.3   315  MET315      0.0387
    162  CG        53.2610   52.6260  136.5870 C.3   315  MET315      0.0595
    163  SD        52.7500   53.2830  135.0140 S.3   315  MET315     -0.1393
    164  CE        51.6220   54.6240  135.5690 C.3   315  MET315      0.0692
    165  N         56.1780   44.6940  142.2430 N.3   321  GLN321     -0.1245
    166  CA        55.2740   45.4260  143.1170 C.3   321  GLN321      0.1566
    167  C         55.0170   44.6910  144.4570 C.2   321  GLN321      0.2260
    168  O         55.1360   45.2900  145.5220 O.2   321  GLN321     -0.2867
    169  CB        53.9650   45.6840  142.4080 C.3   321  GLN321      0.0367
    170  CG        53.9970   46.8450  141.4850 C.3   321  GLN321      0.0905
    171  CD        52.6850   47.0300  140.8070 C.2   321  GLN321      0.2608
    172  OE1       52.3760   46.3140  139.8500 O.2   321  GLN321     -0.2717
    173  NE2       51.8350   47.8830  141.3780 N.am  321  GLN321     -0.0878
    174  N         58.0880   44.6490  146.5080 N.3   324  PHE324     -0.1227
    175  CA        58.3240   46.0190  147.0620 C.3   324  PHE324      0.1736
    176  C         57.5360   46.2480  148.3560 C.2   324  PHE324      0.2595
    177  O         58.0700   46.8270  149.3340 O.2   324  PHE324     -0.2718
    178  CB        57.9670   47.1170  146.0470 C.3   324  PHE324      0.0547
    179  CG        58.0390   48.5170  146.6070 C.ar  324  PHE324     -0.0202
    180  CD1       59.2850   49.2100  146.6700 C.ar  324  PHE324     -0.0042
    181  CD2       56.8590   49.2120  146.9570 C.ar  324  PHE324     -0.0042
    182  CE1       59.3550   50.5610  147.1540 C.ar  324  PHE324     -0.0003
    183  CE2       56.9160   50.5750  147.4620 C.ar  324  PHE324     -0.0003
    184  CZ        58.1650   51.2280  147.5810 C.ar  324  PHE324     -0.0000
    185  N         56.2500   45.8830  148.3270 N.am  325  TRP325     -0.1976
    186  CA        55.3750   46.1230  149.4550 C.3   325  TRP325      0.1640
    187  C         55.6690   45.1840  150.6050 C.2   325  TRP325      0.2290
    188  O         55.5730   45.5790  151.7710 O.2   325  TRP325     -0.2864
    189  CB        53.9160   46.1500  149.0290 C.3   325  TRP325      0.0576
    190  CG        53.6110   47.3630  148.1900 C.ar  325  TRP325      0.0006
    191  CD1       53.3920   47.3890  146.8390 C.ar  325  TRP325      0.0946
    192  CD2       53.6600   48.7420  148.6060 C.ar  325  TRP325      0.0152
    193  NE1       53.2100   48.6810  146.4060 N.ar  325  TRP325     -0.2442
    194  CE2       53.3300   49.5310  147.4740 C.ar  325  TRP325      0.0810
    195  CE3       53.8400   49.3900  149.8480 C.ar  325  TRP325      0.0012
    196  CZ2       53.2000   50.9270  147.5360 C.ar  325  TRP325      0.0191
    197  CZ3       53.7030   50.7780  149.9120 C.ar  325  TRP325      0.0001
    198  CH2       53.3930   51.5320  148.7530 C.ar  325  TRP325      0.0015
    199  N         58.7820   44.5690  151.1750 N.3   327  LEU327     -0.1231
    200  CA        59.8790   45.3670  151.7610 C.3   327  LEU327      0.1693
    201  C         59.3730   46.4790  152.6750 C.2   327  LEU327      0.2591
    202  O         59.8950   46.6420  153.7690 O.2   327  LEU327     -0.2718
    203  CB        60.8380   45.9130  150.6830 C.3   327  LEU327      0.0284
    204  CG        62.1840   46.5310  151.1260 C.3   327  LEU327      0.0019
    205  CD1       63.1970   45.4730  151.5310 C.3   327  LEU327      0.0001
    206  CD2       62.7650   47.4340  150.0540 C.3   327  LEU327      0.0001
    207  N         58.3060   47.1730  152.2600 N.am  328  VAL328     -0.1980
    208  CA        57.6840   48.2110  153.1010 C.3   328  VAL328      0.1595
    209  C         57.0710   47.6240  154.3710 C.2   328  VAL328      0.2287
    210  O         57.4450   48.0330  155.4600 O.2   328  VAL328     -0.2864
    211  CB        56.6930   49.1290  152.3130 C.3   328  VAL328      0.0276
    212  CG1       55.7840   49.9390  153.2700 C.3   328  VAL328      0.0022
    213  CG2       57.4720   50.0820  151.4300 C.3   328  VAL328      0.0022
    214  N         59.7170   46.4520  156.5990 N.3   331  LEU331     -0.1231
    215  CA        60.2960   47.6120  157.2830 C.3   331  LEU331      0.1693
    216  C         59.3790   48.1290  158.3870 C.2   331  LEU331      0.2591
    217  O         59.8750   48.6180  159.4250 O.2   331  LEU331     -0.2718
    218  CB        60.7000   48.7410  156.3080 C.3   331  LEU331      0.0284
    219  CG        62.0360   48.5260  155.5760 C.3   331  LEU331      0.0019
    220  CD1       62.0770   49.3690  154.3470 C.3   331  LEU331      0.0001
    221  CD2       63.2600   48.8040  156.4550 C.3   331  LEU331      0.0001
    222  N         58.0560   47.9430  158.2020 N.am  332  LEU332     -0.1980
    223  CA        57.0780   48.2970  159.2200 C.3   332  LEU332      0.1596
    224  C         57.2120   47.3790  160.4180 C.2   332  LEU332      0.2287
    225  O         57.1180   47.8450  161.5590 O.2   332  LEU332     -0.2864
    226  CB        55.6500   48.2960  158.6660 C.3   332  LEU332      0.0297
    227  CG        54.4950   48.8590  159.5300 C.3   332  LEU332      0.0022
    228  CD1       54.7610   50.2610  160.1510 C.3   332  LEU332      0.0001
    229  CD2       53.2030   48.8780  158.7300 C.3   332  LEU332      0.0001
    230  N         60.4560   48.2740  162.4110 N.3   335  THR335     -0.1218
    231  CA        60.0780   49.4710  163.1700 C.3   335  THR335      0.1862
    232  C         59.4520   49.0910  164.5130 C.2   335  THR335      0.2287
    233  O         60.0990   49.2310  165.5630 O.2   335  THR335     -0.2866
    234  CB        59.1060   50.3650  162.3060 C.3   335  THR335      0.1770
    235  OG1       59.7370   50.6820  161.0610 O.3   335  THR335     -0.2211
    236  CG2       58.8520   51.7380  162.9420 C.3   335  THR335      0.0375
    237  N         64.8830   41.5170  154.9500 N.3   357  TYR357     -0.1241
    238  CA        65.3080   42.8090  154.3880 C.3   357  TYR357      0.1605
    239  C         66.4240   42.5860  153.3590 C.2   357  TYR357      0.2264
    240  O         66.2390   42.8910  152.1680 O.2   357  TYR357     -0.2867
    241  CB        65.7640   43.7650  155.5040 C.3   357  TYR357      0.0534
    242  CG        66.2370   45.1390  155.0250 C.ar  357  TYR357     -0.0201
    243  CD1       65.3020   46.1630  154.7060 C.ar  357  TYR357     -0.0009
    244  CD2       67.6150   45.4540  154.9690 C.ar  357  TYR357     -0.0009
    245  CE1       65.7290   47.4390  154.2840 C.ar  357  TYR357      0.0417
    246  CE2       68.0500   46.7420  154.5490 C.ar  357  TYR357      0.0417
    247  CZ        67.0950   47.7220  154.2090 C.ar  357  TYR357      0.1957
    248  OH        67.4940   48.9890  153.8380 O.3   357  TYR357     -0.2866
@<TRIPOS>BOND
     1   163   164    1
     2   163   162    1
     3   105   106    2
     4   105   104    1
     5   159   160    2
     6   159   158    1
     7   161   162    1
     8   161   158    1
     9   103   104    1
    10   103   109    1
    11   104   107    1
    12   109   108    1
    13   107   108    1
    14   158   157    1
    15    86    85    2
    16    85    84    1
    17    89    91   ar
    18    89    88   ar
    19     1     2    1
    20    91    93   ar
    21   172   171    2
    22    84    87    1
    23    84    83    1
    24    87    88    1
    25    88    90   ar
    26    74    73    2
    27   171   173   am
    28   171   170    1
    29     2     5    1
    30     2     3    1
    31    93    94    1
    32    93    92   ar
    33     6     5    1
    34    79    77   ar
    35    79    81   ar
    36    83    73   am
    37    82    81    1
    38   170   169    1
    39    73    72    1
    40    90    92   ar
    41    77    76   ar
    42    81    80   ar
    43     3     4    2
    44   165   166    1
    45   169   166    1
    46    66    65    2
    47    61    60    1
    48    72    75    1
    49    72    71    1
    50    76    75    1
    51    76    78   ar
    52   166   167    1
    53    58    59    1
    54    58    57    1
    55    80    78   ar
    56    55    54    2
    57    65    71   am
    58    65    64    1
    59    60    59    2
    60    60    62    1
    61    57    56    1
    62    54    53    1
    63    64    63    1
    64    64    67    1
    65   167   168    2
    66    13    12   ar
    67    13    15   ar
    68     7     8    1
    69    11     8    1
    70    11    12    1
    71     9     8    1
    72     9    10    2
    73    12    14   ar
    74    15    16   ar
    75    53    56    1
    76    53    52    1
    77    67    68    1
    78   178   179    1
    79   178   175    1
    80    51    50    2
    81   193   191   ar
    82   193   194   ar
    83   152   151    2
    84    14    16   ar
    85    14    17   ar
    86    70    68    1
    87   174   175    1
    88    16    18   ar
    89   179   180   ar
    90   179   181   ar
    91   180   182   ar
    92    52    50   am
    93    68    69    1
    94   191   190   ar
    95   181   183   ar
    96   175   176    1
    97    50    49    1
    98   182   184   ar
    99    44    43    2
   100   183   184   ar
   101   194   196   ar
   102   194   192   ar
   103   196   198   ar
   104   151   150    1
   105    17    19   ar
   106    18    20   ar
   107   190   192   ar
   108   190   189    1
   109   185   176   am
   110   185   186    1
   111    43    42    1
   112    43    48   am
   113   176   177    2
   114    49    48    1
   115   192   195   ar
   116   150   153    1
   117   150   149    1
   118   198   197   ar
   119    36    35    2
   120    19    20   ar
   121    42    41    1
   122    42    45    1
   123   189   186    1
   124   153   154    1
   125   186   187    1
   126    35    34    1
   127    46    45    1
   128   195   197   ar
   129   156   154    1
   130   206   204    1
   131    45    47    1
   132   154   155    1
   133   187   188    2
   134   203   204    1
   135   203   200    1
   136    34    37    1
   137    34    33    1
   138    37    38    1
   139   204   205    1
   140   199   200    1
   141   213   211    1
   142    24    23    2
   143   200   201    1
   144   240   239    2
   145    38    39    1
   146    33    23   am
   147   207   201   am
   148   207   208    1
   149    39    40    1
   150   211   208    1
   151   211   212    1
   152    23    22    1
   153   144   143    2
   154   201   202    2
   155   208   209    1
   156    95    96    1
   157   239   238    1
   158   143   142    1
   159    22    21    1
   160    22    25    1
   161    99   100    1
   162    99    96    1
   163   248   247    1
   164   100   101    1
   165   100   102    1
   166   247   245   ar
   167   247   246   ar
   168    96    97    1
   169   245   243   ar
   170   220   219    1
   171   209   210    2
   172   238   237    1
   173   238   241    1
   174   246   244   ar
   175   243   242   ar
   176   142   141    1
   177   142   145    1
   178    25    26    1
   179   147   145    1
   180   244   242   ar
   181   138   137    2
   182   242   241    1
   183    97    98    2
   184   141   137   am
   185    27    26   ar
   186    27    29   ar
   187   137   136    1
   188   219   218    1
   189   219   221    1
   190   145   146    1
   191    26    28   ar
   192   218   215    1
   193   136   135    1
   194   136   139    1
   195    29    31   ar
   196   214   215    1
   197   148   146    1
   198    28    30   ar
   199   215   216    1
   200   140   139    1
   201    31    30   ar
   202    31    32    1
   203   222   216   am
   204   222   223    1
   205   132   134   ar
   206   132   130   ar
   207   134   133   ar
   208   216   217    2
   209   226   223    1
   210   226   227    1
   211   229   227    1
   212   130   129   ar
   213   133   131   ar
   214   223   224    1
   215   227   228    1
   216   129   131   ar
   217   129   128    1
   218   123   122   ar
   219   123   121   ar
   220   224   225    2
   221   122   120   ar
   222   128   125    1
   223   235   234    1
   224   121   119   ar
   225   120   117   ar
   226   125   126    1
   227   125   124    1
   228   126   127    2
   229   234   236    1
   230   234   231    1
   231   230   231    1
   232   119   117   ar
   233   119   118   ar
   234   117   115   ar
   235   231   232    1
   236   113   112    2
   237   118   116   ar
   238   112   111    1
   239   115   116   ar
   240   115   114    1
   241   232   233    2
   242   114   111    1
   243   111   110    1
