@<TRIPOS>MOLECULE
tmp/1sqpC09.pdb
 211 203 0 0 0
SMALL
GASTEIGER

@<TRIPOS>ATOM
      1  N         72.5910   59.4300  155.2350 N.3   120  LEU120     -0.1231
      2  CA        73.5720   59.2090  156.3230 C.3   120  LEU120      0.1693
      3  C         73.8470   60.4920  157.1170 C.2   120  LEU120      0.2592
      4  O         73.7400   60.4880  158.3630 O.2   120  LEU120     -0.2718
      5  CB        74.8900   58.6460  155.7910 C.3   120  LEU120      0.0284
      6  CG        74.9060   57.2250  155.2650 C.3   120  LEU120      0.0019
      7  CD1       75.9400   57.1160  154.2170 C.3   120  LEU120      0.0001
      8  CD2       75.1940   56.2350  156.3930 C.3   120  LEU120      0.0001
      9  N         74.0270   61.6040  156.3870 N.am  121  THR121     -0.1953
     10  CA        74.2890   62.9060  156.9890 C.3   121  THR121      0.1897
     11  C         73.1140   63.4780  157.7940 C.2   121  THR121      0.2313
     12  O         73.3350   64.0580  158.8760 O.2   121  THR121     -0.2863
     13  CB        74.7950   63.9060  155.9460 C.3   121  THR121      0.1794
     14  OG1       75.9890   63.4020  155.3490 O.3   121  THR121     -0.2208
     15  CG2       75.2900   65.0910  156.5930 C.3   121  THR121      0.0378
     16  N         70.8170   61.6680  159.1140 N.3   123  MET123     -0.1230
     17  CA        70.6720   60.7840  160.2590 C.3   123  MET123      0.1702
     18  C         71.7580   60.9320  161.3060 C.2   123  MET123      0.2592
     19  O         71.4350   61.1280  162.4900 O.2   123  MET123     -0.2718
     20  CB        70.2530   59.3560  159.8780 C.3   123  MET123      0.0401
     21  CG        71.3200   58.2800  159.8040 C.3   123  MET123      0.0596
     22  SD        70.8130   56.8870  158.7330 S.3   123  MET123     -0.1393
     23  CE        68.9580   56.8010  158.9160 C.3   123  MET123      0.0692
     24  N         73.0090   61.0980  160.8400 N.am  124  ALA124     -0.1980
     25  CA        74.1340   61.5600  161.7030 C.3   124  ALA124      0.1597
     26  C         73.8130   62.8680  162.4110 C.2   124  ALA124      0.2287
     27  O         74.1290   63.0080  163.5880 O.2   124  ALA124     -0.2864
     28  CB        75.4150   61.6970  160.9240 C.3   124  ALA124      0.0319
     29  N         70.5390   64.0980  163.2050 N.3   126  ALA126     -0.1231
     30  CA        69.4540   63.8880  164.1690 C.3   126  ALA126      0.1694
     31  C         69.8900   63.1020  165.4120 C.2   126  ALA126      0.2592
     32  O         69.4230   63.3820  166.5250 O.2   126  ALA126     -0.2718
     33  CB        68.2770   63.2270  163.4930 C.3   126  ALA126      0.0304
     34  N         70.7810   62.1230  165.2040 N.am  127  PHE127     -0.1976
     35  CA        71.3870   61.3440  166.2890 C.3   127  PHE127      0.1639
     36  C         72.1890   62.2510  167.2310 C.2   127  PHE127      0.2290
     37  O         72.0190   62.1540  168.4270 O.2   127  PHE127     -0.2864
     38  CB        72.2250   60.1800  165.7150 C.3   127  PHE127      0.0560
     39  CG        73.3940   59.7480  166.5830 C.ar  127  PHE127     -0.0200
     40  CD1       73.1810   59.0400  167.7880 C.ar  127  PHE127     -0.0042
     41  CD2       74.7280   59.9380  166.1240 C.ar  127  PHE127     -0.0042
     42  CE1       74.2750   58.6470  168.6060 C.ar  127  PHE127     -0.0003
     43  CE2       75.8470   59.5140  166.9090 C.ar  127  PHE127     -0.0003
     44  CZ        75.6200   58.8550  168.1460 C.ar  127  PHE127     -0.0000
     45  N         69.2740   64.8630  169.1550 N.3   130  TYR130     -0.1227
     46  CA        68.5440   64.3560  170.3360 C.3   130  TYR130      0.1736
     47  C         69.3350   64.3050  171.6540 C.2   130  TYR130      0.2595
     48  O         68.7340   64.3010  172.7220 O.2   130  TYR130     -0.2718
     49  CB        67.9550   62.9710  170.0200 C.3   130  TYR130      0.0548
     50  CG        66.8020   62.5260  170.9120 C.ar  130  TYR130     -0.0200
     51  CD1       65.5850   63.2650  170.9620 C.ar  130  TYR130     -0.0009
     52  CD2       66.8990   61.3370  171.6750 C.ar  130  TYR130     -0.0009
     53  CE1       64.5140   62.8610  171.8080 C.ar  130  TYR130      0.0417
     54  CE2       65.8200   60.9060  172.5050 C.ar  130  TYR130      0.0417
     55  CZ        64.6250   61.6630  172.5450 C.ar  130  TYR130      0.1957
     56  OH        63.5620   61.2370  173.3210 O.3   130  TYR130     -0.2866
     57  N         70.6720   64.2580  171.5560 N.am  131  VAL131     -0.1980
     58  CA        71.5900   64.2470  172.7130 C.3   131  VAL131      0.1595
     59  C         71.6120   65.6040  173.4310 C.2   131  VAL131      0.2287
     60  O         71.7620   65.6540  174.6630 O.2   131  VAL131     -0.2864
     61  CB        73.0500   63.8450  172.2980 C.3   131  VAL131      0.0276
     62  CG1       73.9340   63.6290  173.4970 C.3   131  VAL131      0.0022
     63  CG2       73.0460   62.6120  171.5210 C.3   131  VAL131      0.0022
     64  N         67.1050   59.7400  177.8800 N.3   137  MET137     -0.1230
     65  CA        67.1800   59.1070  176.5570 C.3   137  MET137      0.1702
     66  C         68.2670   59.6780  175.6910 C.2   137  MET137      0.2593
     67  O         68.8530   58.9630  174.8680 O.2   137  MET137     -0.2718
     68  CB        65.8260   59.1420  175.8300 C.3   137  MET137      0.0401
     69  CG        65.4040   57.7940  175.1710 C.3   137  MET137      0.0596
     70  SD        66.2940   56.2680  175.7370 S.3   137  MET137     -0.1393
     71  CE        65.4540   55.9190  177.2660 C.3   137  MET137      0.0692
     72  N         68.5410   60.9690  175.8940 N.am  138  SER138     -0.1952
     73  CA        69.6280   61.6740  175.2370 C.3   138  SER138      0.1924
     74  C         70.9510   60.9860  175.5580 C.2   138  SER138      0.2314
     75  O         71.6060   60.4600  174.6450 O.2   138  SER138     -0.2863
     76  CB        69.6580   63.1400  175.6720 C.3   138  SER138      0.2116
     77  OG        68.4670   63.8080  175.2960 O.3   138  SER138     -0.2180
     78  N         70.7940   56.7110  174.9660 N.3   141  GLY141     -0.1210
     79  CA        70.7460   56.5250  173.5190 C.3   141  GLY141      0.1956
     80  C         72.0960   56.8310  172.8880 C.2   141  GLY141      0.2611
     81  O         72.5990   56.0320  172.0730 O.2   141  GLY141     -0.2717
     82  N         72.7100   57.9480  173.3290 N.am  142  ALA142     -0.1979
     83  CA        74.0750   58.3280  172.9440 C.3   142  ALA142      0.1597
     84  C         75.0960   57.2690  173.3510 C.2   142  ALA142      0.2287
     85  O         75.9480   56.9030  172.5510 O.2   142  ALA142     -0.2864
     86  CB        74.4480   59.6760  173.5380 C.3   142  ALA142      0.0319
     87  N         74.4750   53.9480  174.0700 N.3   144  VAL144     -0.1231
     88  CA        74.2120   52.6760  173.4140 C.3   144  VAL144      0.1692
     89  C         74.8110   52.6170  171.9940 C.2   144  VAL144      0.2591
     90  O         75.4890   51.6330  171.6420 O.2   144  VAL144     -0.2718
     91  CB        72.6930   52.3350  173.4670 C.3   144  VAL144      0.0266
     92  CG1       72.2290   51.4750  172.2690 C.3   144  VAL144      0.0020
     93  CG2       72.3730   51.6450  174.7760 C.3   144  VAL144      0.0020
     94  N         74.6890   53.7320  171.2660 N.am  145  ILE145     -0.1980
     95  CA        75.1360   53.8300  169.8660 C.3   145  ILE145      0.1595
     96  C         76.6630   53.9410  169.7310 C.2   145  ILE145      0.2287
     97  O         77.2750   53.1960  168.9540 O.2   145  ILE145     -0.2864
     98  CB        74.3700   55.0010  169.1140 C.3   145  ILE145      0.0276
     99  CG1       72.8590   54.7180  169.0490 C.3   145  ILE145      0.0022
    100  CG2       74.9110   55.2320  167.6880 C.3   145  ILE145      0.0022
    101  CD1       72.4330   53.2310  168.7000 C.3   145  ILE145      0.0001
    102  N         76.5250   70.4940  160.4050 N.3   184  LEU184     -0.1245
    103  CA        76.0580   69.4590  159.4770 C.3   184  LEU184      0.1561
    104  C         74.8620   69.7970  158.5380 C.2   184  LEU184      0.2260
    105  O         74.9180   69.4330  157.3410 O.2   184  LEU184     -0.2867
    106  CB        75.9120   68.0900  160.1400 C.3   184  LEU184      0.0270
    107  CG        76.9680   66.9890  159.8960 C.3   184  LEU184      0.0019
    108  CD1       76.3700   65.6470  160.2550 C.3   184  LEU184      0.0001
    109  CD2       77.5590   66.9400  158.4650 C.3   184  LEU184      0.0001
    110  N         65.2970   51.2310  176.1130 N.3   267  ILE267     -0.1231
    111  CA        66.1990   52.1620  175.3950 C.3   267  ILE267      0.1692
    112  C         65.5540   52.4220  174.0230 C.2   267  ILE267      0.2592
    113  O         65.8230   51.6970  173.0550 O.2   267  ILE267     -0.2718
    114  CB        67.6720   51.5710  175.2330 C.3   267  ILE267      0.0266
    115  CG1       68.0540   50.6050  176.3780 C.3   267  ILE267      0.0019
    116  CG2       68.6730   52.6890  175.1280 C.3   267  ILE267      0.0020
    117  CD1       67.8140   49.0640  176.0560 C.3   267  ILE267      0.0001
    118  N         64.6200   53.3780  173.9850 N.am  268  LYS268     -0.1966
    119  CA        63.7890   53.6130  172.7990 C.3   268  LYS268      0.1713
    120  C         64.2650   54.7820  171.8870 C.2   268  LYS268      0.2458
    121  O         64.1320   55.9730  172.2710 O.2   268  LYS268     -0.2730
    122  CB        62.3130   53.7850  173.1900 C.3   268  LYS268      0.0311
    123  CG        61.3280   53.1710  172.2130 C.3   268  LYS268      0.0038
    124  CD        59.9120   53.7080  172.4290 C.3   268  LYS268      0.0206
    125  CE        58.8490   52.6950  171.9750 C.3   268  LYS268      0.1093
    126  NZ        58.3410   51.8590  173.1250 N.3   268  LYS268     -0.1314
    127  N         64.8160   54.4510  170.6890 N.am  269  PRO269     -0.2716
    128  CA        65.0600   55.4460  169.6510 C.3   269  PRO269      0.1536
    129  C         63.7960   56.2040  169.2470 C.2   269  PRO269      0.2598
    130  O         62.6620   55.7530  169.5520 O.2   269  PRO269     -0.2715
    131  CB        65.5270   54.5920  168.4680 C.3   269  PRO269      0.0310
    132  CG        66.1360   53.4470  169.0500 C.3   269  PRO269      0.0237
    133  CD        65.3650   53.1400  170.2820 C.3   269  PRO269      0.0939
    134  N         63.9920   57.3820  168.6460 N.am  270  GLU270     -0.1978
    135  CA        62.9260   58.0550  167.9260 C.3   270  GLU270      0.1602
    136  C         62.5790   57.1520  166.7250 C.2   270  GLU270      0.2287
    137  O         63.4840   56.5170  166.1340 O.2   270  GLU270     -0.2864
    138  CB        63.3930   59.4150  167.4440 C.3   270  GLU270      0.0415
    139  CG        63.5520   60.4830  168.5300 C.3   270  GLU270      0.1163
    140  CD        62.2210   60.9680  169.1180 C.2   270  GLU270      0.3649
    141  OE1       61.1950   60.9880  168.3850 O.co2 270  GLU270     -0.2457
    142  OE2       62.1960   61.3290  170.3220 O.co2 270  GLU270     -0.2457
    143  N         62.3090   56.9330  163.6430 N.3   272  TYR272     -0.1227
    144  CA        63.1190   56.8790  162.4230 C.3   272  TYR272      0.1736
    145  C         64.4230   56.0750  162.5130 C.2   272  TYR272      0.2595
    146  O         65.0850   55.8450  161.5000 O.2   272  TYR272     -0.2718
    147  CB        63.3710   58.2720  161.8750 C.3   272  TYR272      0.0548
    148  CG        63.8100   59.3020  162.8990 C.ar  272  TYR272     -0.0200
    149  CD1       65.1740   59.4310  163.2810 C.ar  272  TYR272     -0.0009
    150  CD2       62.8570   60.1680  163.4880 C.ar  272  TYR272     -0.0009
    151  CE1       65.5560   60.3820  164.2510 C.ar  272  TYR272      0.0417
    152  CE2       63.2250   61.1170  164.4330 C.ar  272  TYR272      0.0417
    153  CZ        64.5660   61.2410  164.8080 C.ar  272  TYR272      0.1957
    154  OH        64.8760   62.1720  165.7920 O.3   272  TYR272     -0.2866
    155  N         64.7610   55.6260  163.7130 N.am  273  PHE273     -0.1976
    156  CA        65.9130   54.7550  163.9210 C.3   273  PHE273      0.1639
    157  C         65.5280   53.2850  164.3140 C.2   273  PHE273      0.2290
    158  O         66.3840   52.3810  164.2990 O.2   273  PHE273     -0.2864
    159  CB        66.8420   55.3800  164.9650 C.3   273  PHE273      0.0560
    160  CG        67.8130   56.4090  164.4060 C.ar  273  PHE273     -0.0200
    161  CD1       68.3470   56.2860  163.1110 C.ar  273  PHE273     -0.0042
    162  CD2       68.2540   57.4690  165.2150 C.ar  273  PHE273     -0.0042
    163  CE1       69.2640   57.2490  162.6080 C.ar  273  PHE273     -0.0003
    164  CE2       69.1800   58.4240  164.7340 C.ar  273  PHE273     -0.0003
    165  CZ        69.6930   58.3100  163.4290 C.ar  273  PHE273     -0.0000
    166  N         66.3800   50.2330  161.9870 N.3   276  ALA276     -0.1231
    167  CA        67.8470   50.0840  161.9780 C.3   276  ALA276      0.1694
    168  C         68.3720   49.5240  163.2930 C.2   276  ALA276      0.2592
    169  O         69.3890   48.8030  163.3040 O.2   276  ALA276     -0.2718
    170  CB        68.5240   51.4500  161.6760 C.3   276  ALA276      0.0304
    171  N         67.7570   49.9840  164.3980 N.am  277  TYR277     -0.1976
    172  CA        68.0110   49.4840  165.7570 C.3   277  TYR277      0.1639
    173  C         67.6910   47.9830  165.8280 C.2   277  TYR277      0.2290
    174  O         68.5520   47.1860  166.2470 O.2   277  TYR277     -0.2864
    175  CB        67.1670   50.2820  166.7860 C.3   277  TYR277      0.0560
    176  CG        67.5560   50.0960  168.2580 C.ar  277  TYR277     -0.0198
    177  CD1       68.8890   50.3520  168.7140 C.ar  277  TYR277     -0.0009
    178  CD2       66.5750   49.7640  169.2260 C.ar  277  TYR277     -0.0009
    179  CE1       69.2440   50.1940  170.1000 C.ar  277  TYR277      0.0417
    180  CE2       66.9100   49.6310  170.5980 C.ar  277  TYR277      0.0417
    181  CZ        68.2490   49.8300  171.0260 C.ar  277  TYR277      0.1957
    182  OH        68.5740   49.6780  172.3680 O.3   277  TYR277     -0.2866
    183  N         70.2480   45.8370  163.9410 N.3   280  LEU280     -0.1245
    184  CA        71.4550   45.8050  164.7750 C.3   280  LEU280      0.1561
    185  C         71.3580   44.8500  166.0040 C.2   280  LEU280      0.2260
    186  O         72.2780   44.0510  166.2470 O.2   280  LEU280     -0.2867
    187  CB        71.8160   47.2310  165.1990 C.3   280  LEU280      0.0270
    188  CG        72.5860   47.4400  166.4920 C.3   280  LEU280      0.0019
    189  CD1       74.0550   47.4380  166.2080 C.3   280  LEU280      0.0001
    190  CD2       72.1430   48.7090  167.1620 C.3   280  LEU280      0.0001
    191  N         74.2030   47.1020  160.7370 N.3   293  LEU293     -0.1231
    192  CA        73.5830   48.4380  160.8140 C.3   293  LEU293      0.1693
    193  C         74.0890   49.3290  159.6630 C.2   293  LEU293      0.2591
    194  O         73.2890   49.9970  158.9770 O.2   293  LEU293     -0.2718
    195  CB        73.8490   49.1020  162.1840 C.3   293  LEU293      0.0284
    196  CG        73.7150   50.6400  162.2980 C.3   293  LEU293      0.0019
    197  CD1       72.2570   51.0610  162.3150 C.3   293  LEU293      0.0001
    198  CD2       74.4600   51.1930  163.5090 C.3   293  LEU293      0.0001
    199  N         75.4170   49.3370  159.4900 N.am  294  ALA294     -0.1980
    200  CA        76.0760   50.0080  158.3870 C.3   294  ALA294      0.1597
    201  C         75.5010   49.5090  157.0640 C.2   294  ALA294      0.2287
    202  O         74.9100   50.3170  156.3190 O.2   294  ALA294     -0.2864
    203  CB        77.6000   49.7990  158.4510 C.3   294  ALA294      0.0319
    204  N         71.8510   50.5680  155.5410 N.3   297  ILE297     -0.1245
    205  CA        71.6940   51.8000  154.7840 C.3   297  ILE297      0.1561
    206  C         72.5650   51.8200  153.5160 C.2   297  ILE297      0.2260
    207  O         72.0440   52.0970  152.4370 O.2   297  ILE297     -0.2867
    208  CB        71.9160   53.0410  155.6740 C.3   297  ILE297      0.0252
    209  CG1       71.1390   52.9340  157.0110 C.3   297  ILE297      0.0019
    210  CG2       71.6160   54.3570  154.8950 C.3   297  ILE297      0.0019
    211  CD1       69.6200   53.2660  156.9530 C.3   297  ILE297      0.0001
@<TRIPOS>BOND
     1   207   206    2
     2   206   205    1
     3     7     6    1
     4   205   204    1
     5   205   208    1
     6   210   208    1
     7     1     2    1
     8     6     5    1
     9     6     8    1
    10    14    13    1
    11   208   209    1
    12     5     2    1
    13    13    15    1
    14    13    10    1
    15   202   201    2
    16     2     3    1
    17     9    10    1
    18     9     3   am
    19   211   209    1
    20    10    11    1
    21   201   200    1
    22     3     4    2
    23   105   104    2
    24    11    12    2
    25   200   203    1
    26   200   199    1
    27   109   107    1
    28   104   103    1
    29    22    23    1
    30    22    21    1
    31   194   193    2
    32    16    17    1
    33   103   106    1
    34   103   102    1
    35   199   193   am
    36   193   192    1
    37    21    20    1
    38    20    17    1
    39   107   106    1
    40   107   108    1
    41    17    18    1
    42   191   192    1
    43   192   195    1
    44    24    18   am
    45    24    25    1
    46    28    25    1
    47    18    19    2
    48   146   145    2
    49   170   167    1
    50    25    26    1
    51   147   144    1
    52   147   148    1
    53   167   166    1
    54   167   168    1
    55   195   196    1
    56   196   197    1
    57   196   198    1
    58    26    27    2
    59   144   145    1
    60   144   143    1
    61   145   155   am
    62   163   161   ar
    63   163   165   ar
    64   148   149   ar
    65   148   150   ar
    66   161   160   ar
    67    29    30    1
    68   149   151   ar
    69   168   169    2
    70   168   171   am
    71   165   164   ar
    72   150   152   ar
    73    33    30    1
    74   155   156    1
    75   156   157    1
    76   156   159    1
    77   183   184    1
    78    30    31    1
    79   151   153   ar
    80   158   157    2
    81   171   172    1
    82   160   159    1
    83   160   162   ar
    84   152   153   ar
    85   164   162   ar
    86   184   187    1
    87   184   185    1
    88   153   154    1
    89   187   188    1
    90    34    31   am
    91    34    35    1
    92    31    32    2
    93    38    35    1
    94    38    39    1
    95   172   173    1
    96   172   175    1
    97   173   174    2
    98   185   186    2
    99    41    39   ar
   100    41    43   ar
   101   137   136    2
   102   189   188    1
   103    35    36    1
   104   188   190    1
   105    39    40   ar
   106   136   135    1
   107   175   176    1
   108    43    44   ar
   109    36    37    2
   110   138   135    1
   111   138   139    1
   112   100    98    1
   113    40    42   ar
   114   135   134    1
   115    44    42   ar
   116   176   177   ar
   117   176   178   ar
   118   141   140   ar
   119   131   132    1
   120   131   128    1
   121   139   140    1
   122   134   129   am
   123   101    99    1
   124   177   179   ar
   125    97    96    2
   126    99    98    1
   127   132   133    1
   128    98    95    1
   129   140   142   ar
   130    45    46    1
   131   178   180   ar
   132   129   130    2
   133   129   128    1
   134   128   127    1
   135    96    95    1
   136    95    94    1
   137    49    46    1
   138    49    50    1
   139   179   181   ar
   140   133   127    1
   141    46    47    1
   142   180   181   ar
   143   127   120   am
   144    50    51   ar
   145    50    52   ar
   146    51    53   ar
   147   181   182    1
   148    94    89   am
   149    63    61    1
   150    57    47   am
   151    57    58    1
   152    90    89    2
   153    47    48    2
   154    52    54   ar
   155    53    55   ar
   156   120   121    2
   157   120   119    1
   158   125   124    1
   159   125   126    1
   160    89    88    1
   161    81    80    2
   162   123   124    1
   163   123   122    1
   164    92    91    1
   165    61    58    1
   166    61    62    1
   167    54    55   ar
   168    55    56    1
   169    85    84    2
   170    58    59    1
   171   119   122    1
   172   119   118    1
   173    80    82   am
   174    80    79    1
   175    83    82    1
   176    83    84    1
   177    83    86    1
   178   113   112    2
   179    88    91    1
   180    88    87    1
   181    59    60    2
   182    91    93    1
   183    79    78    1
   184   118   112   am
   185   112   111    1
   186    75    74    2
   187    67    66    2
   188   116   114    1
   189    69    70    1
   190    69    68    1
   191   114   111    1
   192   114   115    1
   193    73    74    1
   194    73    76    1
   195    73    72    1
   196    77    76    1
   197   111   110    1
   198    66    72   am
   199    66    65    1
   200    70    71    1
   201    68    65    1
   202   117   115    1
   203    65    64    1
