@<TRIPOS>MOLECULE
tmp/1sqpC02.pdb
 97 89 0 0 0
SMALL
GASTEIGER

@<TRIPOS>ATOM
      1  N         52.2960   62.9440  142.9020 N.3    28  SER28      -0.1217
      2  CA        52.4750   63.5000  144.2550 C.3    28  SER28       0.1889
      3  C         53.7050   62.9040  144.9780 C.2    28  SER28       0.2288
      4  O         54.2140   63.5030  145.9270 O.2    28  SER28      -0.2866
      5  CB        51.2170   63.2510  145.0930 C.3    28  SER28       0.2089
      6  OG        50.1150   63.9630  144.5570 O.3    28  SER28      -0.2183
      7  N         56.7820   65.1450  145.0070 N.3    31  ASN31      -0.1225
      8  CA        56.7200   66.3370  145.8420 C.3    31  ASN31       0.1785
      9  C         57.7030   66.3650  147.0000 C.2    31  ASN31       0.2597
     10  O         58.1370   67.4490  147.4240 O.2    31  ASN31      -0.2718
     11  CB        55.3120   66.5770  146.3350 C.3    31  ASN31       0.1169
     12  CG        54.5030   67.3930  145.3720 C.2    31  ASN31       0.2627
     13  OD1       53.8020   66.8500  144.5110 O.2    31  ASN31      -0.2716
     14  ND2       54.6220   68.7180  145.4760 N.am   31  ASN31      -0.0877
     15  N         58.1470   65.1770  147.4190 N.am   32  PHE32      -0.1976
     16  CA        59.0010   65.0280  148.6010 C.3    32  PHE32       0.1639
     17  C         60.3820   65.6280  148.4890 C.2    32  PHE32       0.2290
     18  O         60.9280   66.0490  149.4830 O.2    32  PHE32      -0.2864
     19  CB        59.0460   63.5710  149.0990 C.3    32  PHE32       0.0560
     20  CG        57.7140   63.0520  149.5390 C.ar   32  PHE32      -0.0200
     21  CD1       57.1720   63.4380  150.7810 C.ar   32  PHE32      -0.0042
     22  CD2       56.9260   62.2620  148.6620 C.ar   32  PHE32      -0.0042
     23  CE1       55.8750   62.9980  151.1730 C.ar   32  PHE32      -0.0003
     24  CE2       55.6330   61.8040  149.0480 C.ar   32  PHE32      -0.0003
     25  CZ        55.1040   62.1780  150.2970 C.ar   32  PHE32      -0.0000
     26  N         59.7050   69.2120  149.3830 N.3    35  LEU35      -0.1245
     27  CA        59.3110   69.0700  150.7900 C.3    35  LEU35       0.1561
     28  C         60.4760   68.7580  151.7260 C.2    35  LEU35       0.2260
     29  O         60.4620   69.1740  152.8630 O.2    35  LEU35      -0.2867
     30  CB        58.1850   68.0380  150.9440 C.3    35  LEU35       0.0270
     31  CG        56.8360   68.4120  150.3040 C.3    35  LEU35       0.0019
     32  CD1       55.9450   67.2250  150.1750 C.3    35  LEU35       0.0001
     33  CD2       56.1300   69.5210  151.0460 C.3    35  LEU35       0.0001
     34  N         59.3620   64.7300  160.7220 N.3    88  MET88      -0.1245
     35  CA        58.7020   65.1080  159.4540 C.3    88  MET88       0.1570
     36  C         59.7050   65.0310  158.2890 C.2    88  MET88       0.2261
     37  O         59.3970   64.4510  157.2240 O.2    88  MET88      -0.2867
     38  CB        58.1290   66.5160  159.5360 C.3    88  MET88       0.0387
     39  CG        56.8100   66.6350  160.3010 C.3    88  MET88       0.0595
     40  SD        55.4060   65.7080  159.6350 S.3    88  MET88      -0.1393
     41  CE        55.2400   66.4450  158.0260 C.3    88  MET88       0.0692
     42  N         60.0140   61.3120  157.5360 N.3    91  ILE91      -0.1231
     43  CA        58.9130   60.7250  156.7140 C.3    91  ILE91       0.1692
     44  C         59.0880   61.0590  155.2190 C.2    91  ILE91       0.2592
     45  O         58.9580   60.1610  154.3630 O.2    91  ILE91      -0.2718
     46  CB        57.3820   60.9480  157.2830 C.3    91  ILE91       0.0266
     47  CG1       56.4470   61.6360  156.2700 C.3    91  ILE91       0.0019
     48  CG2       57.3160   61.6140  158.6810 C.3    91  ILE91       0.0020
     49  CD1       54.9780   61.1060  156.3180 C.3    91  ILE91       0.0001
     50  N         59.5780   62.2820  154.9460 N.am   92  CYS92      -0.1970
     51  CA        59.8550   62.7310  153.5920 C.3    92  CYS92       0.1712
     52  C         61.0280   61.9960  153.0010 C.2    92  CYS92       0.2296
     53  O         60.9230   61.4930  151.8770 O.2    92  CYS92      -0.2864
     54  CB        60.0710   64.2190  153.5420 C.3    92  CYS92       0.0983
     55  SG        58.6320   65.1220  154.0900 S.3    92  CYS92      -0.0798
     56  N         51.9340   73.0010  142.3090 N.3   226  LYS226     -0.1245
     57  CA        51.8610   71.6530  142.8880 C.3   226  LYS226      0.1561
     58  C         52.7430   71.5300  144.1320 C.2   226  LYS226      0.2260
     59  O         52.3630   70.8450  145.0950 O.2   226  LYS226     -0.2867
     60  CB        52.2260   70.5700  141.8720 C.3   226  LYS226      0.0271
     61  CG        51.4000   69.3070  141.9890 C.3   226  LYS226      0.0035
     62  CD        51.1430   68.6670  140.6340 C.3   226  LYS226      0.0206
     63  CE        50.3940   67.3320  140.7670 C.3   226  LYS226      0.1093
     64  NZ        51.2030   66.1720  140.3610 N.3   226  LYS226     -0.1314
     65  N         50.9250   73.7280  146.9940 N.3   229  LEU229     -0.1231
     66  CA        49.8490   72.9130  147.6100 C.3   229  LEU229      0.1693
     67  C         50.4040   71.8260  148.5370 C.2   229  LEU229      0.2592
     68  O         49.9030   71.6410  149.6400 O.2   229  LEU229     -0.2718
     69  CB        48.9380   72.3000  146.5210 C.3   229  LEU229      0.0284
     70  CG        47.8020   71.3250  146.8730 C.3   229  LEU229      0.0019
     71  CD1       46.5780   72.0240  147.5150 C.3   229  LEU229      0.0001
     72  CD2       47.4020   70.5790  145.6190 C.3   229  LEU229      0.0001
     73  N         51.4590   71.1440  148.0690 N.am  230  GLY230     -0.1957
     74  CA        52.1450   70.0900  148.8040 C.3   230  GLY230      0.1869
     75  C         52.7820   70.5570  150.0900 C.2   230  GLY230      0.2309
     76  O         52.7270   69.8390  151.0870 O.2   230  GLY230     -0.2863
     77  N         50.1650   71.0060  152.8710 N.3   233  LEU233     -0.1231
     78  CA        49.9070   69.7130  153.5090 C.3   233  LEU233      0.1693
     79  C         50.9820   69.3310  154.5330 C.2   233  LEU233      0.2591
     80  O         50.6500   68.8200  155.6050 O.2   233  LEU233     -0.2718
     81  CB        49.7220   68.6000  152.4620 C.3   233  LEU233      0.0284
     82  CG        48.4390   68.6400  151.6100 C.3   233  LEU233      0.0019
     83  CD1       48.6460   67.8710  150.3640 C.3   233  LEU233      0.0001
     84  CD2       47.2220   68.1090  152.3450 C.3   233  LEU233      0.0001
     85  N         52.2500   69.6470  154.2230 N.am  234  LEU234     -0.1980
     86  CA        53.3770   69.4250  155.1380 C.3   234  LEU234      0.1596
     87  C         53.2310   70.2220  156.4050 C.2   234  LEU234      0.2287
     88  O         53.4350   69.6760  157.4950 O.2   234  LEU234     -0.2864
     89  CB        54.7110   69.7560  154.4890 C.3   234  LEU234      0.0297
     90  CG        55.9480   69.2570  155.2520 C.3   234  LEU234      0.0022
     91  CD1       56.4080   67.9140  154.7050 C.3   234  LEU234      0.0001
     92  CD2       57.0760   70.2860  155.2240 C.3   234  LEU234      0.0001
     93  N         50.4470   68.5470  158.4700 N.3   237  ALA237     -0.1245
     94  CA        50.9940   67.3570  159.1490 C.3   237  ALA237      0.1562
     95  C         52.0320   67.6910  160.2420 C.2   237  ALA237      0.2260
     96  O         52.0020   67.0890  161.3120 O.2   237  ALA237     -0.2867
     97  CB        51.5500   66.3410  158.1390 C.3   237  ALA237      0.0290
@<TRIPOS>BOND
     1    64    63    1
     2    62    63    1
     3    62    61    1
     4    60    61    1
     5    60    57    1
     6    56    57    1
     7    57    58    1
     8     1     2    1
     9    58    59    2
    10     2     3    1
    11     2     5    1
    12    13    12    2
    13     6     5    1
    14     3     4    2
    15     7     8    1
    16    12    14   am
    17    12    11    1
    18    72    70    1
    19     8    11    1
    20     8     9    1
    21    69    70    1
    22    69    66    1
    23    70    71    1
    24    65    66    1
    25     9    15   am
    26     9    10    2
    27    15    16    1
    28    66    67    1
    29    73    67   am
    30    73    74    1
    31    17    16    1
    32    17    18    2
    33    67    68    2
    34    16    19    1
    35    22    24   ar
    36    22    20   ar
    37    74    75    1
    38    24    25   ar
    39    19    20    1
    40    26    27    1
    41    20    21   ar
    42    75    76    2
    43    32    31    1
    44    25    23   ar
    45    31    30    1
    46    31    33    1
    47    83    82    1
    48    21    23   ar
    49    27    30    1
    50    27    28    1
    51    82    84    1
    52    82    81    1
    53    28    29    2
    54    53    52    2
    55    81    78    1
    56    77    78    1
    57    52    51    1
    58    78    79    1
    59    54    51    1
    60    54    55    1
    61    51    50    1
    62    85    79   am
    63    85    86    1
    64    45    44    2
    65    89    86    1
    66    89    90    1
    67    79    80    2
    68    91    90    1
    69    50    44   am
    70    86    87    1
    71    44    43    1
    72    92    90    1
    73    47    49    1
    74    47    46    1
    75    87    88    2
    76    43    46    1
    77    43    42    1
    78    37    36    2
    79    46    48    1
    80    41    40    1
    81    97    94    1
    82    36    35    1
    83    93    94    1
    84    94    95    1
    85    35    38    1
    86    35    34    1
    87    38    39    1
    88    40    39    1
    89    95    96    2
