@<TRIPOS>MOLECULE
tmp/1sqpC01.pdb
 119 113 0 0 0
SMALL
GASTEIGER

@<TRIPOS>ATOM
      1  N         65.6020   88.9990  126.8360 N.3     2  ASN2       -0.1225
      2  CA        64.9790   88.6130  128.1220 C.3     2  ASN2        0.1785
      3  C         65.9430   88.6090  129.3170 C.2     2  ASN2        0.2597
      4  O         66.7880   87.6940  129.4580 O.2     2  ASN2       -0.2718
      5  CB        64.2620   87.2510  128.0110 C.3     2  ASN2        0.1169
      6  CG        63.0400   87.1320  128.9530 C.2     2  ASN2        0.2627
      7  OD1       62.0130   86.5640  128.5670 O.2     2  ASN2       -0.2716
      8  ND2       63.1860   87.5750  130.2060 N.am    2  ASN2       -0.0877
      9  N         65.6880   89.5540  130.2370 N.am    3  ILE3       -0.1966
     10  CA        66.4760   89.7740  131.4740 C.3     3  ILE3        0.1727
     11  C         66.5390   88.5000  132.3620 C.2     3  ILE3        0.2616
     12  O         67.6260   88.0990  132.8030 O.2     3  ILE3       -0.2715
     13  CB        65.9100   91.0280  132.2850 C.3     3  ILE3        0.0290
     14  CG1       65.7020   92.2540  131.3550 C.3     3  ILE3        0.0022
     15  CG2       66.8470   91.4090  133.4330 C.3     3  ILE3        0.0023
     16  CD1       64.2250   92.5610  131.0110 C.3     3  ILE3        0.0001
     17  N         65.3980   87.8080  132.4680 N.am    4  ARG4       -0.1977
     18  CA        65.2420   86.5600  133.2550 C.3     4  ARG4        0.1597
     19  C         66.0920   85.3550  132.7270 C.2     4  ARG4        0.2287
     20  O         66.3770   84.4140  133.4850 O.2     4  ARG4       -0.2864
     21  CB        63.7510   86.1850  133.3120 C.3     4  ARG4        0.0334
     22  CG        63.3120   85.3620  134.5240 C.3     4  ARG4        0.0492
     23  CD        62.3050   84.2140  134.2250 C.3     4  ARG4        0.2205
     24  NE        61.5150   84.4070  132.9960 N.pl3   4  ARG4       -0.0865
     25  CZ        61.6150   83.6590  131.8800 C.cat   4  ARG4        0.5346
     26  NH1       62.4350   82.6210  131.8160 N.pl3   4  ARG4        0.1354
     27  NH2       60.8820   83.9630  130.8130 N.pl3   4  ARG4        0.1354
     28  N         70.0940   85.3590  137.7150 N.3    10  MET10      -0.1245
     29  CA        68.6870   85.0720  137.3880 C.3    10  MET10       0.1570
     30  C         68.5800   83.9000  136.4160 C.2    10  MET10       0.2261
     31  O         67.6570   83.0950  136.5310 O.2    10  MET10      -0.2867
     32  CB        67.9860   86.3190  136.8310 C.3    10  MET10       0.0387
     33  CG        67.6650   87.3850  137.8960 C.3    10  MET10       0.0595
     34  SD        66.3530   88.5420  137.4120 S.3    10  MET10      -0.1393
     35  CE        64.7340   87.4030  137.7960 C.3    10  MET10       0.0692
     36  N         68.8140   80.5950  138.3220 N.3    13  VAL13      -0.1245
     37  CA        67.5020   80.3950  138.9850 C.3    13  VAL13       0.1561
     38  C         66.4060   79.9220  137.9750 C.2    13  VAL13       0.2260
     39  O         65.6660   78.9530  138.2490 O.2    13  VAL13      -0.2867
     40  CB        67.0650   81.6940  139.7990 C.3    13  VAL13       0.0252
     41  CG1       65.5740   81.6950  140.1430 C.3    13  VAL13       0.0019
     42  CG2       67.8800   81.8180  141.0860 C.3    13  VAL13       0.0019
     43  N         64.3400   76.5350  138.5970 N.3    17  PHE17      -0.1227
     44  CA        63.0120   76.7070  139.2400 C.3    17  PHE17       0.1736
     45  C         61.8520   77.2740  138.3450 C.2    17  PHE17       0.2595
     46  O         60.6940   77.3070  138.8010 O.2    17  PHE17      -0.2718
     47  CB        63.1390   77.5680  140.5300 C.3    17  PHE17       0.0547
     48  CG        63.9550   76.9220  141.6520 C.ar   17  PHE17      -0.0202
     49  CD1       63.3340   76.0470  142.5870 C.ar   17  PHE17      -0.0042
     50  CD2       65.2960   77.3240  141.8850 C.ar   17  PHE17      -0.0042
     51  CE1       64.0800   75.4900  143.7030 C.ar   17  PHE17      -0.0003
     52  CE2       66.0540   76.7980  142.9890 C.ar   17  PHE17      -0.0003
     53  CZ        65.4460   75.8770  143.8990 C.ar   17  PHE17      -0.0000
     54  N         62.1600   77.7320  137.1100 N.am   18  ILE18      -0.1980
     55  CA        61.1540   78.4000  136.2350 C.3    18  ILE18       0.1595
     56  C         60.9080   77.7290  134.8580 C.2    18  ILE18       0.2287
     57  O         59.7990   77.2420  134.5880 O.2    18  ILE18      -0.2864
     58  CB        61.4560   79.9600  136.1100 C.3    18  ILE18       0.0276
     59  CG1       61.1430   80.6670  137.4190 C.3    18  ILE18       0.0022
     60  CG2       60.6180   80.6370  135.0140 C.3    18  ILE18       0.0022
     61  CD1       62.3390   81.1300  138.1440 C.3    18  ILE18       0.0001
     62  N         61.1210   68.6260  147.0550 N.3    34  SER34      -0.1217
     63  CA        60.9450   70.0330  147.4580 C.3    34  SER34       0.1889
     64  C         60.6080   70.1040  148.9510 C.2    34  SER34       0.2288
     65  O         61.2330   70.8680  149.6990 O.2    34  SER34      -0.2866
     66  CB        59.8490   70.7160  146.6170 C.3    34  SER34       0.2089
     67  OG        58.6020   70.0380  146.7480 O.3    34  SER34      -0.2183
     68  N         62.1350   72.2830  151.9430 N.3    38  ILE38      -0.1245
     69  CA        61.3330   73.0110  152.9510 C.3    38  ILE38       0.1561
     70  C         61.7110   72.5430  154.3700 C.2    38  ILE38       0.2260
     71  O         62.0660   73.3800  155.2130 O.2    38  ILE38      -0.2867
     72  CB        59.7690   72.8680  152.7090 C.3    38  ILE38       0.0252
     73  CG1       59.4060   73.0820  151.2180 C.3    38  ILE38       0.0019
     74  CG2       58.9600   73.7840  153.6990 C.3    38  ILE38       0.0019
     75  CD1       58.5000   74.2700  150.8910 C.3    38  ILE38       0.0001
     76  N         58.4510   73.8780  134.6020 N.3   219  PHE219     -0.1227
     77  CA        58.3410   73.7740  136.0670 C.3   219  PHE219      0.1736
     78  C         57.4310   74.8580  136.7140 C.2   219  PHE219      0.2595
     79  O         56.8170   74.6080  137.7300 O.2   219  PHE219     -0.2718
     80  CB        59.7280   73.7410  136.6970 C.3   219  PHE219      0.0547
     81  CG        59.7350   73.3220  138.1290 C.ar  219  PHE219     -0.0202
     82  CD1       59.6410   74.2890  139.1670 C.ar  219  PHE219     -0.0042
     83  CD2       59.8650   71.9560  138.4710 C.ar  219  PHE219     -0.0042
     84  CE1       59.5980   73.9010  140.5270 C.ar  219  PHE219     -0.0003
     85  CE2       59.8330   71.5310  139.8290 C.ar  219  PHE219     -0.0003
     86  CZ        59.6940   72.5050  140.8640 C.ar  219  PHE219     -0.0000
     87  N         57.3540   76.0350  136.0890 N.am  220  HIS220     -0.1975
     88  CA        56.4080   77.0950  136.4480 C.3   220  HIS220      0.1656
     89  C         55.4030   77.2270  135.2650 C.2   220  HIS220      0.2291
     90  O         55.8440   77.2290  134.1050 O.2   220  HIS220     -0.2864
     91  CB        57.1700   78.4320  136.6820 C.3   220  HIS220      0.0771
     92  CG        56.2770   79.6010  136.9680 C.ar  220  HIS220      0.0820
     93  ND1       55.7660   79.8590  138.2220 N.ar  220  HIS220     -0.2267
     94  CD2       55.7460   80.5380  136.1450 C.ar  220  HIS220      0.1154
     95  CE1       54.9580   80.9040  138.1580 C.ar  220  HIS220      0.1986
     96  NE2       54.9450   81.3480  136.9130 N.ar  220  HIS220     -0.2212
     97  N         55.3720   74.7540  140.3870 N.3   224  THR224     -0.1218
     98  CA        55.4030   75.8120  141.4100 C.3   224  THR224      0.1862
     99  C         54.1740   75.6640  142.2820 C.2   224  THR224      0.2287
    100  O         54.3080   75.4830  143.4860 O.2   224  THR224     -0.2866
    101  CB        55.4550   77.2440  140.7880 C.3   224  THR224      0.1770
    102  OG1       56.4050   77.2730  139.7380 O.3   224  THR224     -0.2211
    103  CG2       56.0590   78.2650  141.7990 C.3   224  THR224      0.0375
    104  N         53.8830   72.2340  144.1420 N.3   227  ASP227     -0.1225
    105  CA        54.7590   72.2540  145.3230 C.3   227  ASP227      0.1805
    106  C         54.2220   73.1910  146.4270 C.2   227  ASP227      0.2597
    107  O         54.4270   72.9310  147.6230 O.2   227  ASP227     -0.2718
    108  CB        56.2200   72.5740  144.9500 C.3   227  ASP227      0.1424
    109  CG        56.9240   71.4170  144.1810 C.2   227  ASP227      0.3668
    110  OD1       56.2920   70.3410  143.9020 O.co2 227  ASP227     -0.2456
    111  OD2       58.1140   71.5310  143.7720 O.co2 227  ASP227     -0.2456
    112  N         53.5330   74.2700  146.0090 N.am  228  ILE228     -0.1980
    113  CA        52.8730   75.2010  146.9380 C.3   228  ILE228      0.1595
    114  C         51.7720   74.4840  147.7110 C.2   228  ILE228      0.2287
    115  O         51.7660   74.5350  148.9350 O.2   228  ILE228     -0.2864
    116  CB        52.3590   76.5150  146.1940 C.3   228  ILE228      0.0276
    117  CG1       53.5240   77.4980  145.8710 C.3   228  ILE228      0.0022
    118  CG2       51.2480   77.2430  146.9730 C.3   228  ILE228      0.0022
    119  CD1       54.7870   77.4640  146.8340 C.3   228  ILE228      0.0001
@<TRIPOS>BOND
     1     1     2    1
     2     5     2    1
     3     5     6    1
     4     2     3    1
     5     7     6    2
     6     6     8   am
     7     3     4    2
     8     3     9   am
     9     9    10    1
    10    27    25    1
    11    16    14    1
    12    14    13    1
    13    10    13    1
    14    10    11    1
    15    26    25    1
    16    25    24    2
    17    13    15    1
    18    11    17   am
    19    11    12    2
    20    17    18    1
    21    19    18    1
    22    19    20    2
    23    24    23    1
    24    18    21    1
    25    21    22    1
    26    90    89    2
    27    23    22    1
    28    57    56    2
    29    76    77    1
    30    56    55    1
    31    60    58    1
    32    89    88    1
    33    77    80    1
    34    77    78    1
    35    87    88    1
    36    87    78   am
    37    58    55    1
    38    58    59    1
    39    94    96   ar
    40    94    92   ar
    41    55    54    1
    42    30    31    2
    43    30    29    1
    44    88    91    1
    45    91    92    1
    46    80    81    1
    47    78    79    2
    48    32    29    1
    49    32    33    1
    50    96    95   ar
    51    92    93   ar
    52    54    45   am
    53    29    28    1
    54    34    35    1
    55    34    33    1
    56    59    61    1
    57    38    39    2
    58    38    37    1
    59    81    83   ar
    60    81    82   ar
    61    95    93   ar
    62    36    37    1
    63    45    46    2
    64    45    44    1
    65    83    85   ar
    66    43    44    1
    67    37    40    1
    68    82    84   ar
    69    44    47    1
    70   102   101    1
    71    40    41    1
    72    40    42    1
    73    85    86   ar
    74    97    98    1
    75    84    86   ar
    76    47    48    1
    77   101    98    1
    78   101   103    1
    79    98    99    1
    80    48    50   ar
    81    48    49   ar
    82    50    52   ar
    83    99   100    2
    84    49    51   ar
    85    52    53   ar
    86    51    53   ar
    87   111   109   ar
    88   110   109   ar
    89   104   105    1
    90   109   108    1
    91   108   105    1
    92   105   106    1
    93   117   116    1
    94   117   119    1
    95   112   106   am
    96   112   113    1
    97   116   113    1
    98   116   118    1
    99   106   107    2
   100    66    67    1
   101    66    63    1
   102   113   114    1
   103    62    63    1
   104    63    64    1
   105   114   115    2
   106    64    65    2
   107    75    73    1
   108    73    72    1
   109    68    69    1
   110    72    69    1
   111    72    74    1
   112    69    70    1
   113    70    71    2
