@<TRIPOS>MOLECULE
tmp/1sqqC03.pdb
 178 172 0 0 0
SMALL
GASTEIGER

@<TRIPOS>ATOM
      1  N         70.8200   61.7080  159.4020 N.3   123  MET123     -0.1245
      2  CA        70.7290   60.7880  160.5410 C.3   123  MET123      0.1570
      3  C         71.7230   61.2080  161.6000 C.2   123  MET123      0.2261
      4  O         71.3120   61.5420  162.7600 O.2   123  MET123     -0.2867
      5  CB        71.0280   59.3690  160.1170 C.3   123  MET123      0.0387
      6  CG        69.8310   58.5340  159.8430 C.3   123  MET123      0.0595
      7  SD        70.2310   56.9470  159.0310 S.3   123  MET123     -0.1393
      8  CE        71.9620   56.4640  159.9750 C.3   123  MET123      0.0692
      9  N         70.6160   64.2700  163.6310 N.3   126  ALA126     -0.1231
     10  CA        69.4750   64.1960  164.5620 C.3   126  ALA126      0.1694
     11  C         69.8340   63.3760  165.8150 C.2   126  ALA126      0.2592
     12  O         69.4600   63.7430  166.9320 O.2   126  ALA126     -0.2718
     13  CB        68.2800   63.6370  163.8680 C.3   126  ALA126      0.0304
     14  N         70.6730   62.3580  165.6170 N.am  127  PHE127     -0.1976
     15  CA        71.2930   61.6060  166.6990 C.3   127  PHE127      0.1639
     16  C         72.1140   62.4560  167.6200 C.2   127  PHE127      0.2290
     17  O         71.9860   62.3230  168.8120 O.2   127  PHE127     -0.2864
     18  CB        72.1180   60.4550  166.1240 C.3   127  PHE127      0.0560
     19  CG        73.2360   59.9680  167.0160 C.ar  127  PHE127     -0.0200
     20  CD1       74.5880   60.2190  166.6580 C.ar  127  PHE127     -0.0042
     21  CD2       72.9720   59.0890  168.0680 C.ar  127  PHE127     -0.0042
     22  CE1       75.6650   59.7010  167.4390 C.ar  127  PHE127     -0.0003
     23  CE2       74.0270   58.5710  168.8630 C.ar  127  PHE127     -0.0003
     24  CZ        75.3820   58.8690  168.5400 C.ar  127  PHE127     -0.0000
     25  N         69.6990   64.7840  169.5090 N.3   130  TYR130     -0.1227
     26  CA        68.9050   64.1940  170.5810 C.3   130  TYR130      0.1736
     27  C         69.6330   64.1510  171.9220 C.2   130  TYR130      0.2595
     28  O         68.9810   64.1110  172.9680 O.2   130  TYR130     -0.2718
     29  CB        68.4070   62.8060  170.1860 C.3   130  TYR130      0.0548
     30  CG        67.2270   62.3360  170.9880 C.ar  130  TYR130     -0.0200
     31  CD1       67.4000   61.4170  172.0600 C.ar  130  TYR130     -0.0009
     32  CD2       65.9210   62.8280  170.7200 C.ar  130  TYR130     -0.0009
     33  CE1       66.2900   60.9850  172.8510 C.ar  130  TYR130      0.0417
     34  CE2       64.7990   62.4040  171.5010 C.ar  130  TYR130      0.0417
     35  CZ        64.9940   61.4800  172.5660 C.ar  130  TYR130      0.1957
     36  OH        63.9120   61.0450  173.3150 O.3   130  TYR130     -0.2866
     37  N         70.9750   64.1940  171.8970 N.am  131  VAL131     -0.1980
     38  CA        71.7730   64.2370  173.1330 C.3   131  VAL131      0.1595
     39  C         71.5910   65.5680  173.8220 C.2   131  VAL131      0.2287
     40  O         71.3680   65.5950  175.0190 O.2   131  VAL131     -0.2864
     41  CB        73.2560   63.9430  172.8960 C.3   131  VAL131      0.0276
     42  CG1       74.0010   63.8050  174.2140 C.3   131  VAL131      0.0022
     43  CG2       73.4090   62.6970  172.1510 C.3   131  VAL131      0.0022
     44  N         67.2430   59.6360  178.0150 N.3   137  MET137     -0.1230
     45  CA        67.3560   59.0110  176.6910 C.3   137  MET137      0.1702
     46  C         68.5020   59.6000  175.8780 C.2   137  MET137      0.2593
     47  O         69.3550   58.8590  175.3960 O.2   137  MET137     -0.2718
     48  CB        66.0140   59.0270  175.9150 C.3   137  MET137      0.0401
     49  CG        65.1120   57.8170  176.1940 C.3   137  MET137      0.0596
     50  SD        65.9420   56.1880  176.0430 S.3   137  MET137     -0.1393
     51  CE        65.8140   55.6120  177.5670 C.3   137  MET137      0.0692
     52  N         68.5520   60.9370  175.8320 N.am  138  SER138     -0.1952
     53  CA        69.7590   61.7210  175.5430 C.3   138  SER138      0.1924
     54  C         71.0950   61.0710  175.9570 C.2   138  SER138      0.2314
     55  O         71.8970   60.7380  175.0950 O.2   138  SER138     -0.2863
     56  CB        69.6400   63.1230  176.1210 C.3   138  SER138      0.2116
     57  OG        68.4180   63.7270  175.7650 O.3   138  SER138     -0.2180
     58  N         70.5940   56.3640  175.1200 N.3   141  GLY141     -0.1210
     59  CA        70.8880   56.8220  173.7680 C.3   141  GLY141      0.1956
     60  C         72.3600   57.0210  173.4350 C.2   141  GLY141      0.2611
     61  O         73.0140   56.0630  172.9830 O.2   141  GLY141     -0.2717
     62  N         72.8980   58.2120  173.7570 N.am  142  ALA142     -0.1979
     63  CA        74.3030   58.5580  173.4950 C.3   142  ALA142      0.1597
     64  C         75.2560   57.4590  173.8990 C.2   142  ALA142      0.2287
     65  O         76.0390   57.0100  173.0680 O.2   142  ALA142     -0.2864
     66  CB        74.6820   59.8420  174.1890 C.3   142  ALA142      0.0319
     67  N         74.5790   54.0450  174.5830 N.3   144  VAL144     -0.1231
     68  CA        74.4350   52.7390  173.9490 C.3   144  VAL144      0.1692
     69  C         74.9400   52.7170  172.4740 C.2   144  VAL144      0.2591
     70  O         75.6600   51.7780  172.0540 O.2   144  VAL144     -0.2718
     71  CB        73.0150   52.1530  174.1710 C.3   144  VAL144      0.0266
     72  CG1       72.4590   51.4610  172.9310 C.3   144  VAL144      0.0020
     73  CG2       73.0320   51.1980  175.3820 C.3   144  VAL144      0.0020
     74  N         74.7430   53.8470  171.7900 N.am  145  ILE145     -0.1980
     75  CA        74.9950   53.9390  170.3610 C.3   145  ILE145      0.1595
     76  C         76.4470   54.1380  170.0520 C.2   145  ILE145      0.2287
     77  O         77.0140   53.3730  169.2770 O.2   145  ILE145     -0.2864
     78  CB        74.0790   54.9910  169.6890 C.3   145  ILE145      0.0276
     79  CG1       72.6010   54.6100  169.9050 C.3   145  ILE145      0.0022
     80  CG2       74.3960   55.1420  168.1490 C.3   145  ILE145      0.0022
     81  CD1       72.2040   53.1360  169.5170 C.3   145  ILE145      0.0001
     82  N         65.5830   51.1410  176.8100 N.3   267  ILE267     -0.1231
     83  CA        66.2550   52.1510  175.9890 C.3   267  ILE267      0.1692
     84  C         65.6940   52.1490  174.5380 C.2   267  ILE267      0.2592
     85  O         66.1790   51.4050  173.6400 O.2   267  ILE267     -0.2718
     86  CB        67.8350   52.0070  176.0910 C.3   267  ILE267      0.0266
     87  CG1       68.2880   52.2870  177.5270 C.3   267  ILE267      0.0019
     88  CG2       68.5660   53.0000  175.1660 C.3   267  ILE267      0.0020
     89  CD1       69.4500   51.4660  177.9820 C.3   267  ILE267      0.0001
     90  N         64.5890   52.8840  174.3660 N.am  268  LYS268     -0.1966
     91  CA        63.8990   52.9640  173.0860 C.3   268  LYS268      0.1713
     92  C         64.3120   54.2650  172.3100 C.2   268  LYS268      0.2458
     93  O         64.1570   55.3880  172.8400 O.2   268  LYS268     -0.2730
     94  CB        62.3650   52.7350  173.2630 C.3   268  LYS268      0.0311
     95  CG        61.3700   53.7170  172.5720 C.3   268  LYS268      0.0038
     96  CD        60.4280   52.9820  171.5740 C.3   268  LYS268      0.0206
     97  CE        58.9170   53.1210  171.9560 C.3   268  LYS268      0.1093
     98  NZ        58.3730   51.9410  172.7180 N.3   268  LYS268     -0.1314
     99  N         64.9110   54.1000  171.1100 N.am  269  PRO269     -0.2716
    100  CA        65.0650   55.2000  170.1520 C.3   269  PRO269      0.1536
    101  C         63.7720   55.9560  169.8440 C.2   269  PRO269      0.2598
    102  O         62.6510   55.4640  170.1160 O.2   269  PRO269     -0.2715
    103  CB        65.5900   54.5120  168.8840 C.3   269  PRO269      0.0310
    104  CG        66.0760   53.2240  169.2870 C.3   269  PRO269      0.0237
    105  CD        65.5140   52.8580  170.6070 C.3   269  PRO269      0.0939
    106  N         63.9400   57.1500  169.2650 N.am  270  GLU270     -0.1978
    107  CA        62.9910   57.6960  168.3000 C.3   270  GLU270      0.1602
    108  C         62.6820   56.7340  167.1600 C.2   270  GLU270      0.2287
    109  O         63.5460   55.9340  166.7360 O.2   270  GLU270     -0.2864
    110  CB        63.4720   59.0500  167.7630 C.3   270  GLU270      0.0415
    111  CG        63.4960   60.1710  168.8060 C.3   270  GLU270      0.1163
    112  CD        62.1060   60.6360  169.2390 C.2   270  GLU270      0.3649
    113  OE1       61.9830   61.2060  170.3520 O.co2 270  GLU270     -0.2457
    114  OE2       61.1420   60.4670  168.4540 O.co2 270  GLU270     -0.2457
    115  N         62.5170   56.7630  164.0040 N.3   272  TYR272     -0.1227
    116  CA        63.3020   56.7310  162.7850 C.3   272  TYR272      0.1736
    117  C         64.6220   55.9610  162.8710 C.2   272  TYR272      0.2595
    118  O         65.2450   55.7000  161.8440 O.2   272  TYR272     -0.2718
    119  CB        63.5030   58.1190  162.2250 C.3   272  TYR272      0.0548
    120  CG        63.8440   59.1790  163.2360 C.ar  272  TYR272     -0.0200
    121  CD1       62.8510   60.0750  163.6930 C.ar  272  TYR272     -0.0009
    122  CD2       65.1740   59.3760  163.6590 C.ar  272  TYR272     -0.0009
    123  CE1       63.1620   61.1330  164.5710 C.ar  272  TYR272      0.0417
    124  CE2       65.5040   60.4530  164.5180 C.ar  272  TYR272      0.0417
    125  CZ        64.4830   61.3160  164.9820 C.ar  272  TYR272      0.1957
    126  OH        64.7700   62.3470  165.8600 O.3   272  TYR272     -0.2866
    127  N         64.9680   55.4790  164.0660 N.am  273  PHE273     -0.1976
    128  CA        66.0280   54.4610  164.1970 C.3   273  PHE273      0.1639
    129  C         65.5700   53.0520  164.5650 C.2   273  PHE273      0.2290
    130  O         66.3750   52.0900  164.5520 O.2   273  PHE273     -0.2864
    131  CB        67.1130   54.9350  165.1520 C.3   273  PHE273      0.0560
    132  CG        67.7530   56.2270  164.7550 C.ar  273  PHE273     -0.0200
    133  CD1       68.3900   56.3630  163.5130 C.ar  273  PHE273     -0.0042
    134  CD2       67.7390   57.3170  165.6360 C.ar  273  PHE273     -0.0042
    135  CE1       68.9640   57.5740  163.1480 C.ar  273  PHE273     -0.0003
    136  CE2       68.3450   58.5100  165.3010 C.ar  273  PHE273     -0.0003
    137  CZ        68.9400   58.6550  164.0450 C.ar  273  PHE273     -0.0000
    138  N         66.3610   50.0450  162.4520 N.3   276  ALA276     -0.1231
    139  CA        67.7990   49.7720  162.3690 C.3   276  ALA276      0.1694
    140  C         68.3610   49.2490  163.6870 C.2   276  ALA276      0.2592
    141  O         69.3220   48.4480  163.6940 O.2   276  ALA276     -0.2718
    142  CB        68.5370   51.0290  161.9510 C.3   276  ALA276      0.0304
    143  N         67.7940   49.7570  164.7940 N.am  277  TYR277     -0.1976
    144  CA        68.1200   49.3170  166.1620 C.3   277  TYR277      0.1639
    145  C         67.7150   47.8530  166.3850 C.2   277  TYR277      0.2290
    146  O         68.5520   47.0310  166.7920 O.2   277  TYR277     -0.2864
    147  CB        67.4550   50.2620  167.1980 C.3   277  TYR277      0.0560
    148  CG        67.8500   50.0420  168.6710 C.ar  277  TYR277     -0.0198
    149  CD1       69.1790   50.2820  169.1270 C.ar  277  TYR277     -0.0009
    150  CD2       66.8750   49.6880  169.6340 C.ar  277  TYR277     -0.0009
    151  CE1       69.5330   50.0900  170.5240 C.ar  277  TYR277      0.0417
    152  CE2       67.2010   49.5710  171.0110 C.ar  277  TYR277      0.0417
    153  CZ        68.5300   49.7140  171.4390 C.ar  277  TYR277      0.1957
    154  OH        68.8390   49.5240  172.7690 O.3   277  TYR277     -0.2866
    155  N         70.1590   45.7630  164.5190 N.3   280  LEU280     -0.1245
    156  CA        71.4190   45.7420  165.2430 C.3   280  LEU280      0.1561
    157  C         71.4370   44.6710  166.3630 C.2   280  LEU280      0.2260
    158  O         72.3840   43.8710  166.4510 O.2   280  LEU280     -0.2867
    159  CB        71.7560   47.1460  165.7690 C.3   280  LEU280      0.0270
    160  CG        72.5610   47.2140  167.0580 C.3   280  LEU280      0.0019
    161  CD1       74.0570   47.0000  166.8130 C.3   280  LEU280      0.0001
    162  CD2       72.2550   48.4620  167.8670 C.3   280  LEU280      0.0001
    163  N         74.3830   46.8010  161.1390 N.3   293  LEU293     -0.1245
    164  CA        73.7120   48.1130  161.2010 C.3   293  LEU293      0.1561
    165  C         74.2440   49.1100  160.1340 C.2   293  LEU293      0.2260
    166  O         73.4550   49.7340  159.3960 O.2   293  LEU293     -0.2867
    167  CB        73.8100   48.7130  162.6170 C.3   293  LEU293      0.0270
    168  CG        73.5140   50.2160  162.8170 C.3   293  LEU293      0.0019
    169  CD1       72.0390   50.6010  162.5030 C.3   293  LEU293      0.0001
    170  CD2       73.9140   50.6800  164.1830 C.3   293  LEU293      0.0001
    171  N         72.0570   50.3210  156.0650 N.3   297  ILE297     -0.1245
    172  CA        71.8720   51.5380  155.2660 C.3   297  ILE297      0.1561
    173  C         72.7650   51.6290  154.0050 C.2   297  ILE297      0.2260
    174  O         72.2400   51.7930  152.9040 O.2   297  ILE297     -0.2867
    175  CB        71.9270   52.8000  156.1560 C.3   297  ILE297      0.0252
    176  CG1       70.7880   52.7700  157.1650 C.3   297  ILE297      0.0019
    177  CG2       71.7240   54.0500  155.3490 C.3   297  ILE297      0.0019
    178  CD1       71.2470   52.6170  158.5850 C.3   297  ILE297      0.0001
@<TRIPOS>BOND
     1   174   173    2
     2   173   172    1
     3   172   171    1
     4   172   175    1
     5   177   175    1
     6   175   176    1
     7   176   178    1
     8     7     6    1
     9     7     8    1
    10   166   165    2
    11     1     2    1
    12     6     5    1
    13     5     2    1
    14   165   164    1
    15     2     3    1
    16   163   164    1
    17   164   167    1
    18     3     4    2
    19   118   117    2
    20   142   139    1
    21   119   116    1
    22   119   120    1
    23   139   138    1
    24   139   140    1
    25   169   168    1
    26   167   168    1
    27   116   117    1
    28   116   115    1
    29   168   170    1
    30   117   127   am
    31   135   133   ar
    32   135   137   ar
    33   120   122   ar
    34   120   121   ar
    35   133   132   ar
    36     9    10    1
    37   122   124   ar
    38   140   141    2
    39   140   143   am
    40   121   123   ar
    41    13    10    1
    42   137   136   ar
    43   127   128    1
    44   128   129    1
    45   128   131    1
    46   124   125   ar
    47   155   156    1
    48   130   129    2
    49    10    11    1
    50   123   125   ar
    51   132   131    1
    52   132   134   ar
    53   143   144    1
    54   125   126    1
    55   156   159    1
    56   156   157    1
    57   136   134   ar
    58    14    11   am
    59    14    15    1
    60   159   160    1
    61    11    12    2
    62    18    15    1
    63    18    19    1
    64   144   145    1
    65   144   147    1
    66   157   158    2
    67   145   146    2
    68    20    19   ar
    69    20    22   ar
    70    15    16    1
    71   109   108    2
    72   161   160    1
    73    19    21   ar
    74   160   162    1
    75   108   107    1
    76   147   148    1
    77    22    24   ar
    78    16    17    2
    79   110   107    1
    80   110   111    1
    81    21    23   ar
    82    80    78    1
    83   107   106    1
    84   114   112   ar
    85    24    23   ar
    86   148   149   ar
    87   148   150   ar
    88   111   112    1
    89   103   104    1
    90   103   100    1
    91   149   151   ar
    92   112   113   ar
    93   106   101   am
    94    77    76    2
    95   104   105    1
    96    25    26    1
    97    81    79    1
    98   150   152   ar
    99    78    79    1
   100    78    75    1
   101   101   102    2
   102   101   100    1
   103    76    75    1
   104   100    99    1
   105    29    26    1
   106    29    30    1
   107    75    74    1
   108   151   153   ar
   109    26    27    1
   110   105    99    1
   111    32    30   ar
   112    32    34   ar
   113    30    31   ar
   114   152   153   ar
   115    99    92   am
   116   153   154    1
   117    34    35   ar
   118    96    97    1
   119    96    95    1
   120    74    69   am
   121    37    27   am
   122    37    38    1
   123    27    28    2
   124    97    98    1
   125    70    69    2
   126    31    33   ar
   127    43    41    1
   128    92    93    2
   129    92    91    1
   130    69    68    1
   131    35    33   ar
   132    35    36    1
   133    95    94    1
   134    41    38    1
   135    41    42    1
   136    72    71    1
   137    61    60    2
   138    65    64    2
   139    91    94    1
   140    91    90    1
   141    38    39    1
   142    60    62   am
   143    60    59    1
   144    63    62    1
   145    63    64    1
   146    63    66    1
   147    85    84    2
   148    59    58    1
   149    39    40    2
   150    68    71    1
   151    68    67    1
   152    71    73    1
   153    90    84   am
   154    84    83    1
   155    55    54    2
   156    88    86    1
   157    47    46    2
   158    53    52    1
   159    53    54    1
   160    53    56    1
   161    57    56    1
   162    52    46   am
   163    46    45    1
   164    48    49    1
   165    48    45    1
   166    83    86    1
   167    83    82    1
   168    50    49    1
   169    50    51    1
   170    86    87    1
   171    45    44    1
   172    87    89    1
