@<TRIPOS>MOLECULE
tmp/1sqsA00.pdb
 80 75 0 0 0
SMALL
GASTEIGER

@<TRIPOS>ATOM
      1  N         24.1590   70.7770   16.8440 N.3     9  VAL9       -0.1245
      2  CA        23.8620   70.8770   15.4160 C.3     9  VAL9        0.1561
      3  C         24.9310   71.6270   14.6280 C.2     9  VAL9        0.2260
      4  O         25.4780   72.6190   15.1000 O.2     9  VAL9       -0.2867
      5  CB        22.5150   71.5930   15.2120 C.3     9  VAL9        0.0252
      6  CG1       21.4070   70.8010   15.8890 C.3     9  VAL9        0.0019
      7  CG2       22.5780   72.9970   15.7860 C.3     9  VAL9        0.0019
      8  N         24.4440   71.5300   10.8730 N.3    11  ASN11      -0.1240
      9  CA        23.7350   71.7950    9.6160 C.3    11  ASN11       0.1653
     10  C         22.8900   73.0460    9.8810 C.2    11  ASN11       0.2266
     11  O         21.9940   73.0170   10.7280 O.2    11  ASN11      -0.2867
     12  CB        22.8410   70.5870    9.2790 C.3    11  ASN11       0.1155
     13  CG        21.8380   70.8700    8.1750 C.2    11  ASN11       0.2627
     14  OD1       21.9890   71.8130    7.4000 O.2    11  ASN11      -0.2716
     15  ND2       20.8040   70.0370    8.0970 N.am   11  ASN11      -0.0877
     16  N         20.5740   74.2220    8.3190 N.3    13  ASN13      -0.1225
     17  CA        19.1780   74.0050    7.9630 C.3    13  ASN13       0.1785
     18  C         18.5880   72.9130    8.8620 C.2    13  ASN13       0.2598
     19  O         17.5280   72.3580    8.5760 O.2    13  ASN13      -0.2718
     20  CB        19.0560   73.5870    6.5000 C.3    13  ASN13       0.1169
     21  CG        17.6220   73.5820    6.0240 C.2    13  ASN13       0.2627
     22  OD1       16.8750   74.5360    6.2580 O.2    13  ASN13      -0.2716
     23  ND2       17.2260   72.5130    5.3420 N.am   13  ASN13      -0.0877
     24  N         19.2890   72.6240    9.9540 N.am   14  SER14      -0.1938
     25  CA        18.8950   71.6000   10.9170 C.3    14  SER14       0.2055
     26  C         17.4460   71.6110   11.3940 C.2    14  SER14       0.2643
     27  O         16.9450   72.6280   11.8780 O.2    14  SER14      -0.2714
     28  CB        19.8020   71.6800   12.1440 C.3    14  SER14       0.2130
     29  OG        19.3020   70.8620   13.1910 O.3    14  SER14      -0.2179
     30  N         16.7770   70.4690   11.2630 N.am   15  LYS15      -0.1963
     31  CA        15.4080   70.3580   11.7400 C.3    15  LYS15       0.1728
     32  C         15.4670   70.2710   13.2650 C.2    15  LYS15       0.2616
     33  O         14.5770   70.7540   13.9620 O.2    15  LYS15      -0.2715
     34  CB        14.7240   69.1170   11.1560 C.3    15  LYS15       0.0311
     35  CG        14.4390   69.2360    9.6610 C.3    15  LYS15       0.0038
     36  CD        13.5800   68.0920    9.1490 C.3    15  LYS15       0.0206
     37  CE        13.3050   68.2310    7.6590 C.3    15  LYS15       0.1093
     38  NZ        14.5590   68.1530    6.8650 N.3    15  LYS15      -0.1314
     39  N         16.5280   69.6560   13.7820 N.am   16  THR16      -0.1951
     40  CA        16.6960   69.5450   15.2250 C.3    16  THR16       0.1897
     41  C         16.7500   70.9540   15.8110 C.2    16  THR16       0.2313
     42  O         16.1460   71.2280   16.8490 O.2    16  THR16      -0.2863
     43  CB        17.9980   68.7960   15.5900 C.3    16  THR16       0.1794
     44  OG1       17.9450   67.4690   15.0510 O.3    16  THR16      -0.2208
     45  CG2       18.1620   68.7160   17.1030 C.3    16  THR16       0.0378
     46  N         20.5950   65.6010   16.6770 N.3    87  PRO87      -0.2116
     47  CA        20.0430   65.0230   15.4570 C.3    87  PRO87       0.1372
     48  C         20.3900   63.5460   15.6460 C.2    87  PRO87       0.2244
     49  O         21.3340   63.2200   16.3720 O.2    87  PRO87      -0.2868
     50  CB        20.9200   65.6180   14.3600 C.3    87  PRO87       0.0268
     51  CG        21.3550   66.9340   14.9290 C.3    87  PRO87       0.0207
     52  CD        21.6310   66.6070   16.3740 C.3    87  PRO87       0.0892
     53  N         21.7250   60.8780   13.4450 N.3    89  TYR89      -0.1241
     54  CA        22.2630   60.5950   12.1180 C.3    89  TYR89       0.1605
     55  C         23.1160   59.3420   12.2410 C.2    89  TYR89       0.2264
     56  O         24.0290   59.2790   13.0660 O.2    89  TYR89      -0.2867
     57  CB        23.1130   61.7710   11.6170 C.3    89  TYR89       0.0534
     58  CG        23.4320   61.7420   10.1280 C.ar   89  TYR89      -0.0201
     59  CD1       24.5970   62.3290    9.6390 C.ar   89  TYR89      -0.0009
     60  CD2       22.5690   61.1320    9.2120 C.ar   89  TYR89      -0.0009
     61  CE1       24.9020   62.3090    8.2770 C.ar   89  TYR89       0.0417
     62  CE2       22.8620   61.1060    7.8440 C.ar   89  TYR89       0.0417
     63  CZ        24.0330   61.6960    7.3870 C.ar   89  TYR89       0.1957
     64  OH        24.3450   61.6610    6.0470 O.3    89  TYR89      -0.2866
     65  N         16.1180   63.9410   17.3220 N.3   123  VAL123     -0.1245
     66  CA        15.3570   64.0540   16.0870 C.3   123  VAL123      0.1561
     67  C         15.9620   63.2370   14.9510 C.2   123  VAL123      0.2260
     68  O         17.1240   63.4180   14.6030 O.2   123  VAL123     -0.2867
     69  CB        15.2910   65.5560   15.7010 C.3   123  VAL123      0.0252
     70  CG1       14.4160   65.7690   14.4800 C.3   123  VAL123      0.0019
     71  CG2       14.7500   66.3590   16.8920 C.3   123  VAL123      0.0019
     72  N         15.5100   61.7570   10.8800 N.3   125  GLU125     -0.1245
     73  CA        14.8670   62.0270    9.6010 C.3   125  GLU125      0.1567
     74  C         14.4730   60.7630    8.8480 C.2   125  GLU125      0.2260
     75  O         13.9570   60.8360    7.7320 O.2   125  GLU125     -0.2867
     76  CB        15.7860   62.8800    8.7260 C.3   125  GLU125      0.0388
     77  CG        16.0710   64.2520    9.3030 C.3   125  GLU125      0.1160
     78  CD        14.8050   65.0260    9.6050 C.2   125  GLU125      0.3649
     79  OE1       13.9630   65.1600    8.6890 O.co2 125  GLU125     -0.2457
     80  OE2       14.6520   65.4950   10.7560 O.co2 125  GLU125     -0.2457
@<TRIPOS>BOND
     1    23    21   am
     2    21    22    2
     3    21    20    1
     4    64    63    1
     5    20    17    1
     6    38    37    1
     7    63    62   ar
     8    63    61   ar
     9    14    13    2
    10    37    36    1
    11    75    74    2
    12    62    60   ar
    13    17    16    1
    14    17    18    1
    15    15    13   am
    16    13    12    1
    17    61    59   ar
    18    19    18    2
    19    79    78   ar
    20    76    77    1
    21    76    73    1
    22    74    73    1
    23    18    24   am
    24    36    35    1
    25    60    58   ar
    26    12     9    1
    27    77    78    1
    28    73    72    1
    29    78    80   ar
    30     9    10    1
    31     9     8    1
    32    59    58   ar
    33    35    34    1
    34    10    11    2
    35    24    25    1
    36    58    57    1
    37    25    26    1
    38    25    28    1
    39    34    31    1
    40    30    26   am
    41    30    31    1
    42    26    27    2
    43    57    54    1
    44    31    32    1
    45    54    55    1
    46    54    53    1
    47    28    29    1
    48    55    56    2
    49    32    39   am
    50    32    33    2
    51    39    40    1
    52    50    51    1
    53    50    47    1
    54    70    69    1
    55    68    67    2
    56     3     4    2
    57     3     2    1
    58    51    52    1
    59    67    66    1
    60    44    43    1
    61     5     2    1
    62     5     7    1
    63     5     6    1
    64    40    43    1
    65    40    41    1
    66     2     1    1
    67    47    48    1
    68    47    46    1
    69    43    45    1
    70    48    49    2
    71    69    66    1
    72    69    71    1
    73    41    42    2
    74    66    65    1
    75    52    46    1
