@<TRIPOS>MOLECULE
tmp/1sqvC02.pdb
 169 162 0 0 0
SMALL
GASTEIGER

@<TRIPOS>ATOM
      1  N         72.7180   59.3300  153.9220 N.3   120  LEU120     -0.1245
      2  CA        73.6850   59.1530  155.0090 C.3   120  LEU120      0.1561
      3  C         73.8990   60.4540  155.7670 C.2   120  LEU120      0.2260
      4  O         73.5860   60.5330  156.9570 O.2   120  LEU120     -0.2867
      5  CB        75.0260   58.6350  154.4810 C.3   120  LEU120      0.0270
      6  CG        75.0330   57.2050  153.9370 C.3   120  LEU120      0.0019
      7  CD1       75.9760   57.0950  152.7430 C.3   120  LEU120      0.0001
      8  CD2       75.3890   56.2030  155.0310 C.3   120  LEU120      0.0001
      9  N         70.9120   61.4930  157.6460 N.3   123  MET123     -0.1230
     10  CA        70.7970   60.5640  158.7790 C.3   123  MET123      0.1702
     11  C         71.6950   61.0490  159.8970 C.2   123  MET123      0.2592
     12  O         71.1860   61.5180  160.9150 O.2   123  MET123     -0.2718
     13  CB        71.2000   59.1390  158.3980 C.3   123  MET123      0.0401
     14  CG        70.0480   58.1710  158.2380 C.3   123  MET123      0.0596
     15  SD        70.3850   56.9150  156.9860 S.3   123  MET123     -0.1393
     16  CE        71.7250   56.0090  157.7560 C.3   123  MET123      0.0692
     17  N         72.9930   61.1280  159.5890 N.am  124  ALA124     -0.1980
     18  CA        74.0300   61.6400  160.4860 C.3   124  ALA124      0.1597
     19  C         73.6910   62.9640  161.1650 C.2   124  ALA124      0.2287
     20  O         73.9310   63.1010  162.3630 O.2   124  ALA124     -0.2864
     21  CB        75.3670   61.7400  159.7690 C.3   124  ALA124      0.0319
     22  N         70.5230   62.3540  163.8190 N.3   127  PHE127     -0.1241
     23  CA        71.1010   61.7030  164.9920 C.3   127  PHE127      0.1605
     24  C         71.7570   62.7080  165.9420 C.2   127  PHE127      0.2264
     25  O         71.2440   62.9040  167.0460 O.2   127  PHE127     -0.2867
     26  CB        72.0180   60.5330  164.5940 C.3   127  PHE127      0.0534
     27  CG        73.1680   60.2780  165.5410 C.ar  127  PHE127     -0.0203
     28  CD1       72.9490   59.7930  166.8360 C.ar  127  PHE127     -0.0042
     29  CD2       74.4840   60.4850  165.1110 C.ar  127  PHE127     -0.0042
     30  CE1       74.0230   59.5450  167.7010 C.ar  127  PHE127     -0.0003
     31  CE2       75.5710   60.2020  165.9490 C.ar  127  PHE127     -0.0003
     32  CZ        75.3370   59.7380  167.2550 C.ar  127  PHE127     -0.0000
     33  N         68.9150   64.9840  167.7360 N.3   130  TYR130     -0.1241
     34  CA        68.2950   64.4870  168.9760 C.3   130  TYR130      0.1605
     35  C         69.2050   64.2370  170.1930 C.2   130  TYR130      0.2264
     36  O         68.7060   64.0910  171.3120 O.2   130  TYR130     -0.2867
     37  CB        67.2790   63.3540  168.7280 C.3   130  TYR130      0.0534
     38  CG        67.8520   62.0100  168.3260 C.ar  130  TYR130     -0.0201
     39  CD1       68.3830   61.1350  169.2910 C.ar  130  TYR130     -0.0009
     40  CD2       67.6940   61.5300  167.0170 C.ar  130  TYR130     -0.0009
     41  CE1       68.8520   59.8490  168.9380 C.ar  130  TYR130      0.0417
     42  CE2       68.1340   60.2370  166.6530 C.ar  130  TYR130      0.0417
     43  CZ        68.7190   59.4070  167.6170 C.ar  130  TYR130      0.1957
     44  OH        69.1360   58.1320  167.2850 O.3   130  TYR130     -0.2866
     45  N         67.4750   59.3100  175.4930 N.3   137  MET137     -0.1245
     46  CA        67.5310   58.7850  174.1400 C.3   137  MET137      0.1570
     47  C         68.7740   59.3590  173.4520 C.2   137  MET137      0.2261
     48  O         69.5200   58.6060  172.8230 O.2   137  MET137     -0.2867
     49  CB        66.2270   59.1270  173.4080 C.3   137  MET137      0.0387
     50  CG        65.6890   58.0610  172.4540 C.3   137  MET137      0.0595
     51  SD        65.9520   58.4790  170.6980 S.3   137  MET137     -0.1393
     52  CE        65.0530   60.1060  170.5350 C.3   137  MET137      0.0692
     53  N         72.4920   57.5090  175.2150 N.3   140  TRP140     -0.1227
     54  CA        72.6240   56.1610  174.6520 C.3   140  TRP140      0.1737
     55  C         72.4780   56.1330  173.1280 C.2   140  TRP140      0.2596
     56  O         72.9630   55.2040  172.4660 O.2   140  TRP140     -0.2718
     57  CB        71.6600   55.1900  175.3390 C.3   140  TRP140      0.0564
     58  CG        71.6750   55.3550  176.8420 C.ar  140  TRP140      0.0003
     59  CD1       70.7240   55.9760  177.6090 C.ar  140  TRP140      0.0946
     60  CD2       72.7630   55.0510  177.7320 C.ar  140  TRP140      0.0152
     61  NE1       71.1370   56.0450  178.9180 N.ar  140  TRP140     -0.2442
     62  CE2       72.3810   55.4810  179.0260 C.ar  140  TRP140      0.0810
     63  CE3       74.0110   54.4210  177.5750 C.ar  140  TRP140      0.0012
     64  CZ2       73.2040   55.3160  180.1500 C.ar  140  TRP140      0.0191
     65  CZ3       74.8290   54.2580  178.6900 C.ar  140  TRP140      0.0001
     66  CH2       74.4260   54.7190  179.9580 C.ar  140  TRP140      0.0015
     67  N         71.8230   57.1610  172.5860 N.am  141  GLY141     -0.1957
     68  CA        71.9990   57.5590  171.2070 C.3   141  GLY141      0.1869
     69  C         73.4720   57.7230  170.9120 C.2   141  GLY141      0.2309
     70  O         74.0440   56.8910  170.2000 O.2   141  GLY141     -0.2863
     71  N         75.7160   54.4610  171.6810 N.3   144  VAL144     -0.1231
     72  CA        75.6050   53.2300  170.8970 C.3   144  VAL144      0.1692
     73  C         76.1260   53.4200  169.4700 C.2   144  VAL144      0.2591
     74  O         76.9600   52.6360  169.0010 O.2   144  VAL144     -0.2718
     75  CB        74.1820   52.6070  170.9040 C.3   144  VAL144      0.0266
     76  CG1       74.1830   51.2950  170.1440 C.3   144  VAL144      0.0020
     77  CG2       73.7280   52.3210  172.3130 C.3   144  VAL144      0.0020
     78  N         75.7400   54.5390  168.8630 N.am  145  ILE145     -0.1980
     79  CA        76.0470   54.8400  167.4720 C.3   145  ILE145      0.1595
     80  C         77.5450   55.0290  167.2530 C.2   145  ILE145      0.2287
     81  O         78.1240   54.3450  166.4170 O.2   145  ILE145     -0.2864
     82  CB        75.2290   56.0510  166.9850 C.3   145  ILE145      0.0276
     83  CG1       73.7310   55.7280  167.0550 C.3   145  ILE145      0.0022
     84  CG2       75.7160   56.5190  165.5960 C.3   145  ILE145      0.0022
     85  CD1       72.8600   56.4360  166.0660 C.3   145  ILE145      0.0001
     86  N         79.6120   51.7680  167.4910 N.3   148  LEU148     -0.1245
     87  CA        79.6500   51.0170  166.2370 C.3   148  LEU148      0.1561
     88  C         81.0340   50.9580  165.6100 C.2   148  LEU148      0.2260
     89  O         81.4660   49.8920  165.1550 O.2   148  LEU148     -0.2867
     90  CB        78.6450   51.5610  165.2230 C.3   148  LEU148      0.0270
     91  CG        77.1500   51.3070  165.4190 C.3   148  LEU148      0.0019
     92  CD1       76.3630   52.3230  164.6160 C.3   148  LEU148      0.0001
     93  CD2       76.7500   49.9200  164.9770 C.3   148  LEU148      0.0001
     94  N         64.2740   51.0640  175.8100 N.3   267  ILE267     -0.1231
     95  CA        65.1710   51.7700  174.8890 C.3   267  ILE267      0.1692
     96  C         64.9260   51.4870  173.4000 C.2   267  ILE267      0.2592
     97  O         64.3690   50.4420  173.0350 O.2   267  ILE267     -0.2718
     98  CB        66.6680   51.5580  175.2960 C.3   267  ILE267      0.0266
     99  CG1       67.4460   52.8710  175.1920 C.3   267  ILE267      0.0019
    100  CG2       67.3440   50.3970  174.5270 C.3   267  ILE267      0.0020
    101  CD1       68.7790   52.8510  175.9020 C.3   267  ILE267      0.0001
    102  N         65.2050   52.5140  172.5950 N.am  268  LYS268     -0.1966
    103  CA        65.1480   52.5130  171.1260 C.3   268  LYS268      0.1713
    104  C         65.6700   53.8730  170.6080 C.2   268  LYS268      0.2458
    105  O         65.6360   54.8740  171.3470 O.2   268  LYS268     -0.2730
    106  CB        63.7290   52.2310  170.5750 C.3   268  LYS268      0.0311
    107  CG        62.5490   52.8040  171.3780 C.3   268  LYS268      0.0038
    108  CD        61.2770   52.8410  170.5570 C.3   268  LYS268      0.0206
    109  CE        60.6010   54.2040  170.6390 C.3   268  LYS268      0.1093
    110  NZ        61.2500   55.2430  169.7690 N.3   268  LYS268     -0.1314
    111  N         66.1760   53.9180  169.3710 N.am  269  PRO269     -0.2727
    112  CA        66.3450   55.1960  168.6640 C.3   269  PRO269      0.1402
    113  C         65.0290   55.8270  168.2020 C.2   269  PRO269      0.2269
    114  O         63.9450   55.3460  168.5600 O.2   269  PRO269     -0.2865
    115  CB        67.1980   54.8190  167.4530 C.3   269  PRO269      0.0296
    116  CG        67.0350   53.3660  167.2860 C.3   269  PRO269      0.0237
    117  CD        66.8450   52.8140  168.6580 C.3   269  PRO269      0.0939
    118  N         65.0510   55.2460  162.5350 N.3   273  PHE273     -0.1241
    119  CA        66.1640   54.3260  162.7600 C.3   273  PHE273      0.1605
    120  C         65.7090   52.9440  163.2470 C.2   273  PHE273      0.2264
    121  O         66.5320   52.0240  163.3600 O.2   273  PHE273     -0.2867
    122  CB        67.1840   54.9300  163.7390 C.3   273  PHE273      0.0534
    123  CG        67.8220   56.2260  163.2770 C.ar  273  PHE273     -0.0203
    124  CD1       67.9000   56.5730  161.9280 C.ar  273  PHE273     -0.0042
    125  CD2       68.4850   57.0310  164.2050 C.ar  273  PHE273     -0.0042
    126  CE1       68.5140   57.7510  161.5270 C.ar  273  PHE273     -0.0003
    127  CE2       69.1390   58.2020  163.8120 C.ar  273  PHE273     -0.0003
    128  CZ        69.1450   58.5650  162.4730 C.ar  273  PHE273     -0.0000
    129  N         66.3760   49.9170  161.0660 N.3   276  ALA276     -0.1231
    130  CA        67.8120   49.6480  161.0900 C.3   276  ALA276      0.1694
    131  C         68.2300   48.9780  162.3920 C.2   276  ALA276      0.2592
    132  O         69.0450   48.0540  162.3680 O.2   276  ALA276     -0.2718
    133  CB        68.5920   50.9380  160.8840 C.3   276  ALA276      0.0304
    134  N         67.6580   49.4530  163.5040 N.am  277  TYR277     -0.1976
    135  CA        67.8140   48.8870  164.8440 C.3   277  TYR277      0.1639
    136  C         67.5230   47.3920  164.8750 C.2   277  TYR277      0.2290
    137  O         68.4300   46.5990  165.1500 O.2   277  TYR277     -0.2864
    138  CB        66.8820   49.6140  165.8170 C.3   277  TYR277      0.0560
    139  CG        67.1300   49.3560  167.2960 C.ar  277  TYR277     -0.0198
    140  CD1       68.4330   49.2110  167.8040 C.ar  277  TYR277     -0.0009
    141  CD2       66.0680   49.3680  168.2050 C.ar  277  TYR277     -0.0009
    142  CE1       68.6610   49.0370  169.1610 C.ar  277  TYR277      0.0417
    143  CE2       66.2910   49.2150  169.5650 C.ar  277  TYR277      0.0417
    144  CZ        67.5880   49.0360  170.0340 C.ar  277  TYR277      0.1957
    145  OH        67.8220   48.9060  171.3860 O.3   277  TYR277     -0.2866
    146  N         70.2060   45.1450  163.1620 N.3   280  LEU280     -0.1245
    147  CA        71.5240   44.9860  163.7720 C.3   280  LEU280      0.1561
    148  C         71.5360   44.0530  164.9880 C.2   280  LEU280      0.2260
    149  O         72.5150   43.3230  165.1890 O.2   280  LEU280     -0.2867
    150  CB        72.1480   46.3530  164.0660 C.3   280  LEU280      0.0270
    151  CG        72.8270   46.6590  165.3970 C.3   280  LEU280      0.0019
    152  CD1       74.3130   46.3540  165.3420 C.3   280  LEU280      0.0001
    153  CD2       72.5720   48.0970  165.7560 C.3   280  LEU280      0.0001
    154  N         74.1960   46.2630  159.4600 N.3   293  LEU293     -0.1245
    155  CA        73.6920   47.6380  159.4440 C.3   293  LEU293      0.1561
    156  C         74.2830   48.5190  158.3310 C.2   293  LEU293      0.2260
    157  O         73.5300   49.1890  157.6130 O.2   293  LEU293     -0.2867
    158  CB        73.8720   48.3030  160.8090 C.3   293  LEU293      0.0270
    159  CG        73.2280   49.6820  160.9800 C.3   293  LEU293      0.0019
    160  CD1       71.8040   49.5500  161.4870 C.3   293  LEU293      0.0001
    161  CD2       74.0520   50.5800  161.8880 C.3   293  LEU293      0.0001
    162  N         72.0610   49.9690  154.3580 N.3   297  ILE297     -0.1245
    163  CA        71.9260   51.2480  153.6560 C.3   297  ILE297      0.1561
    164  C         72.8250   51.3930  152.4130 C.2   297  ILE297      0.2260
    165  O         72.3290   51.6780  151.3100 O.2   297  ILE297     -0.2867
    166  CB        72.0950   52.4370  154.6260 C.3   297  ILE297      0.0252
    167  CG1       71.3300   52.2050  155.9360 C.3   297  ILE297      0.0019
    168  CG2       71.5600   53.6870  153.9830 C.3   297  ILE297      0.0019
    169  CD1       72.1800   52.3040  157.1900 C.3   297  ILE297      0.0001
@<TRIPOS>BOND
     1   165   164    2
     2   164   163    1
     3     7     6    1
     4   163   162    1
     5   163   166    1
     6     1     2    1
     7     6     5    1
     8     6     8    1
     9   168   166    1
    10     5     2    1
    11   166   167    1
    12     2     3    1
    13     3     4    2
    14   167   169    1
    15    15    16    1
    16    15    14    1
    17   157   156    2
    18     9    10    1
    19    14    13    1
    20   156   155    1
    21    13    10    1
    22    10    11    1
    23   155   154    1
    24   155   158    1
    25    17    11   am
    26    17    18    1
    27    21    18    1
    28    11    12    2
    29    18    19    1
    30   158   159    1
    31   133   130    1
    32   159   160    1
    33   159   161    1
    34   129   130    1
    35   130   131    1
    36    19    20    2
    37   126   124   ar
    38   126   128   ar
    39   124   123   ar
    40   132   131    2
    41   131   134   am
    42   128   127   ar
    43   118   119    1
    44   119   120    1
    45   119   122    1
    46   146   147    1
    47   120   121    2
    48   123   122    1
    49   123   125   ar
    50   134   135    1
    51   147   150    1
    52   147   148    1
    53   127   125   ar
    54    22    23    1
    55   150   151    1
    56    26    23    1
    57    26    27    1
    58    92    91    1
    59   135   136    1
    60   135   138    1
    61   136   137    2
    62    93    91    1
    63   148   149    2
    64    23    24    1
    65    29    27   ar
    66    29    31   ar
    67    89    88    2
    68    90    91    1
    69    90    87    1
    70   152   151    1
    71   151   153    1
    72    27    28   ar
    73    84    82    1
    74    88    87    1
    75   138   139    1
    76    24    25    2
    77    31    32   ar
    78    85    83    1
    79    87    86    1
    80    81    80    2
    81    42    40   ar
    82    42    43   ar
    83    28    30   ar
    84    82    83    1
    85    82    79    1
    86    40    38   ar
    87    80    79    1
    88    32    30   ar
    89    44    43    1
    90   116   115    1
    91   116   117    1
    92   139   140   ar
    93   139   141   ar
    94   115   112    1
    95    79    78    1
    96    43    41   ar
    97    33    34    1
    98   140   142   ar
    99   113   114    2
   100   113   112    1
   101   141   143   ar
   102    38    37    1
   103    38    39   ar
   104   117   111    1
   105   112   111    1
   106    37    34    1
   107    78    73   am
   108    41    39   ar
   109    34    35    1
   110    74    73    2
   111   142   144   ar
   112   111   104   am
   113    73    72    1
   114   143   144   ar
   115   110   109    1
   116   144   145    1
   117    76    75    1
   118    35    36    2
   119    70    69    2
   120    52    51    1
   121   108   109    1
   122   108   107    1
   123   106   103    1
   124   106   107    1
   125   104   103    1
   126   104   105    2
   127    51    50    1
   128    72    75    1
   129    72    71    1
   130    75    77    1
   131    69    68    1
   132   103   102    1
   133    68    67    1
   134    50    49    1
   135    56    55    2
   136    67    55   am
   137   102    96   am
   138    48    47    2
   139    97    96    2
   140    55    54    1
   141    96    95    1
   142    49    46    1
   143    47    46    1
   144    46    45    1
   145   100    98    1
   146    54    53    1
   147    54    57    1
   148    95    98    1
   149    95    94    1
   150    99    98    1
   151    99   101    1
   152    57    58    1
   153    58    59   ar
   154    58    60   ar
   155    63    60   ar
   156    63    65   ar
   157    59    61   ar
   158    60    62   ar
   159    65    66   ar
   160    61    62   ar
   161    62    64   ar
   162    66    64   ar
