@<TRIPOS>MOLECULE
tmp/1sqzA00.pdb
 114 111 0 0 0
SMALL
GASTEIGER

@<TRIPOS>ATOM
      1  N         10.6600   16.6500   -5.5040 N.3     2  LEU2       -0.1231
      2  CA         9.3350   17.2430   -5.3900 C.3     2  LEU2        0.1693
      3  C          8.3050   16.3420   -4.7240 C.2     2  LEU2        0.2591
      4  O          7.5280   16.8190   -3.8960 O.2     2  LEU2       -0.2718
      5  CB         8.8510   17.6630   -6.7710 C.3     2  LEU2        0.0284
      6  CG         7.4050   18.1180   -6.9080 C.3     2  LEU2        0.0019
      7  CD1        7.2130   19.0100   -8.1100 C.3     2  LEU2        0.0001
      8  CD2        6.5020   16.9120   -7.0420 C.3     2  LEU2        0.0001
      9  N          8.2840   15.0540   -5.0600 N.am    3  LEU3       -0.1980
     10  CA         7.3420   14.1330   -4.4240 C.3     3  LEU3        0.1596
     11  C          7.6050   13.9960   -2.9360 C.2     3  LEU3        0.2287
     12  O          6.6620   13.9300   -2.1420 O.2     3  LEU3       -0.2864
     13  CB         7.3860   12.7540   -5.0780 C.3     3  LEU3        0.0297
     14  CG         6.6830   12.6450   -6.4260 C.3     3  LEU3        0.0022
     15  CD1        6.7610   11.2180   -6.9220 C.3     3  LEU3        0.0001
     16  CD2        5.2430   13.0920   -6.3110 C.3     3  LEU3        0.0001
     17  N          9.0560   16.2900   -1.0340 N.3     5  PHE5       -0.1241
     18  CA         8.6920   17.5650   -0.4390 C.3     5  PHE5        0.1605
     19  C          7.1840   17.5400   -0.2220 C.2     5  PHE5        0.2264
     20  O          6.6970   17.9280    0.8360 O.2     5  PHE5       -0.2867
     21  CB         9.1020   18.6950   -1.3820 C.3     5  PHE5        0.0534
     22  CG         8.8180   20.0810   -0.8780 C.ar    5  PHE5       -0.0203
     23  CD1        8.9590   20.4330    0.4680 C.ar    5  PHE5       -0.0042
     24  CD2        8.4320   21.0450   -1.7790 C.ar    5  PHE5       -0.0042
     25  CE1        8.7270   21.7280    0.8730 C.ar    5  PHE5       -0.0003
     26  CE2        8.2090   22.3550   -1.3700 C.ar    5  PHE5       -0.0003
     27  CZ         8.3750   22.6870   -0.0180 C.ar    5  PHE5       -0.0000
     28  N         -0.3590   19.3860   -3.7150 N.3    18  ILE18      -0.1245
     29  CA        -1.1720   19.7060   -4.8790 C.3    18  ILE18       0.1561
     30  C         -2.5740   19.3530   -4.3920 C.2    18  ILE18       0.2260
     31  O         -2.8250   18.1950   -4.0680 O.2    18  ILE18      -0.2867
     32  CB        -0.8140   18.8150   -6.0920 C.3    18  ILE18       0.0252
     33  CG1        0.6560   18.9840   -6.4690 C.3    18  ILE18       0.0019
     34  CG2       -1.7260   19.1350   -7.2830 C.3    18  ILE18       0.0019
     35  CD1        1.1170   18.1480   -7.6360 C.3    18  ILE18       0.0001
     36  N          0.7350   24.1510   -4.5370 N.3    22  SER22      -0.1217
     37  CA         1.3450   24.0800   -5.8600 C.3    22  SER22       0.1889
     38  C          1.1250   25.3210   -6.7120 C.2    22  SER22       0.2288
     39  O          1.8010   25.5040   -7.7300 O.2    22  SER22      -0.2866
     40  CB         0.8100   22.8570   -6.6130 C.3    22  SER22       0.2089
     41  OG        -0.5950   22.8070   -6.5310 O.3    22  SER22      -0.2183
     42  N          4.8930   32.7780   -5.1060 N.3    27  TYR27      -0.1241
     43  CA         6.1000   31.9420   -5.1000 C.3    27  TYR27       0.1605
     44  C          5.9200   30.4500   -4.9150 C.2    27  TYR27       0.2264
     45  O          6.8700   29.7060   -5.1580 O.2    27  TYR27      -0.2867
     46  CB         7.0850   32.4770   -4.0440 C.3    27  TYR27       0.0534
     47  CG         7.6140   33.8260   -4.4520 C.ar   27  TYR27      -0.0201
     48  CD1        6.9570   34.9880   -4.0960 C.ar   27  TYR27      -0.0009
     49  CD2        8.7280   33.9280   -5.2690 C.ar   27  TYR27      -0.0009
     50  CE1        7.4010   36.2040   -4.5060 C.ar   27  TYR27       0.0417
     51  CE2        9.1790   35.1510   -5.6950 C.ar   27  TYR27       0.0417
     52  CZ         8.5220   36.2900   -5.3040 C.ar   27  TYR27       0.1957
     53  OH         8.9880   37.5180   -5.7410 O.3    27  TYR27      -0.2866
     54  N          5.2000   26.9860   -5.9270 N.3    29  GLY29      -0.1210
     55  CA         5.0820   26.2420   -7.1620 C.3    29  GLY29       0.1956
     56  C          4.9720   27.1980   -8.3270 C.2    29  GLY29       0.2612
     57  O          3.9060   27.7610   -8.5750 O.2    29  GLY29      -0.2717
     58  N          6.0760   27.3910   -9.0390 N.am   30  TRP30      -0.1962
     59  CA         6.0920   28.2500  -10.2080 C.3    30  TRP30       0.1771
     60  C          5.8870   29.7120   -9.8150 C.2    30  TRP30       0.2620
     61  O          4.7550   30.1760   -9.6630 O.2    30  TRP30      -0.2715
     62  CB         5.0110   27.7970  -11.1900 C.3    30  TRP30       0.0590
     63  CG         5.0910   28.4190  -12.5410 C.ar   30  TRP30       0.0006
     64  CD1        4.7790   29.7030  -12.8700 C.ar   30  TRP30       0.0946
     65  CD2        5.5040   27.7820  -13.7570 C.ar   30  TRP30       0.0152
     66  NE1        4.9750   29.9060  -14.2140 N.ar   30  TRP30      -0.2442
     67  CE2        5.4160   28.7410  -14.7830 C.ar   30  TRP30       0.0810
     68  CE3        5.9440   26.4930  -14.0840 C.ar   30  TRP30       0.0012
     69  CZ2        5.7530   28.4600  -16.1040 C.ar   30  TRP30       0.0191
     70  CZ3        6.2680   26.2120  -15.4040 C.ar   30  TRP30       0.0001
     71  CH2        6.1750   27.1920  -16.3940 C.ar   30  TRP30       0.0015
     72  N          6.9850   30.4390   -9.6570 N.am   31  GLY31      -0.1954
     73  CA         6.9110   31.8410   -9.3070 C.3    31  GLY31       0.1869
     74  C          8.2760   32.4240   -9.0220 C.2    31  GLY31       0.2309
     75  O          9.0620   31.8140   -8.2980 O.2    31  GLY31      -0.2863
     76  N         12.0310   29.3010    0.2350 N.3    47  HIS47      -0.1226
     77  CA        12.3270   27.9880   -0.2990 C.3    47  HIS47       0.1752
     78  C         12.8870   28.1080   -1.7110 C.2    47  HIS47       0.2596
     79  O         13.8410   27.4140   -2.0530 O.2    47  HIS47      -0.2718
     80  CB        11.0580   27.1520   -0.2770 C.3    47  HIS47       0.0759
     81  CG        11.2730   25.7360   -0.7100 C.ar   47  HIS47       0.0818
     82  ND1       10.7360   25.2390   -1.8740 N.ar   47  HIS47      -0.2268
     83  CD2       11.9020   24.7070   -0.1100 C.ar   47  HIS47       0.1154
     84  CE1       11.0860   23.9700   -2.0030 C.ar   47  HIS47       0.1986
     85  NE2       11.7800   23.6170   -0.9410 N.ar   47  HIS47      -0.2212
     86  N         12.3260   28.9930   -2.5150 N.am   48  ASP48      -0.1974
     87  CA        12.8320   29.2120   -3.8560 C.3    48  ASP48       0.1709
     88  C         14.2710   29.7560   -3.7810 C.2    48  ASP48       0.2293
     89  O         15.1400   29.3370   -4.5370 O.2    48  ASP48      -0.2864
     90  CB        11.9820   30.2060   -4.6170 C.3    48  ASP48       0.1436
     91  CG        10.5830   29.6980   -4.9300 C.2    48  ASP48       0.3671
     92  OD1       10.2970   28.4930   -4.8380 O.co2  48  ASP48      -0.2456
     93  OD2        9.6820   30.5150   -5.2470 O.co2  48  ASP48      -0.2456
     94  N         16.6340   26.8560   -2.8730 N.3    51  TYR51      -0.1241
     95  CA        16.9720   26.0620   -4.0370 C.3    51  TYR51       0.1605
     96  C         17.9240   26.8430   -4.9210 C.2    51  TYR51       0.2264
     97  O         18.8310   26.2680   -5.5360 O.2    51  TYR51      -0.2867
     98  CB        15.7160   25.7300   -4.8310 C.3    51  TYR51       0.0534
     99  CG        14.9260   24.5320   -4.3380 C.ar   51  TYR51      -0.0201
    100  CD1       15.2440   23.8650   -3.1690 C.ar   51  TYR51      -0.0009
    101  CD2       13.8530   24.0900   -5.0680 C.ar   51  TYR51      -0.0009
    102  CE1       14.4990   22.7700   -2.7610 C.ar   51  TYR51       0.0417
    103  CE2       13.1160   23.0070   -4.6780 C.ar   51  TYR51       0.0417
    104  CZ        13.4350   22.3480   -3.5250 C.ar   51  TYR51       0.1957
    105  OH        12.6570   21.2630   -3.1630 O.3    51  TYR51      -0.2866
    106  N         14.3080   19.2110   -7.7640 N.3    60  LYS60      -0.1245
    107  CA        13.0400   18.6120   -8.1440 C.3    60  LYS60       0.1561
    108  C         13.0790   17.0920   -8.2820 C.2    60  LYS60       0.2260
    109  O         12.0710   16.4420   -8.0220 O.2    60  LYS60      -0.2867
    110  CB        12.4870   19.2760   -9.4080 C.3    60  LYS60       0.0271
    111  CG        12.0200   20.6830   -9.1550 C.3    60  LYS60       0.0035
    112  CD        11.1120   20.7510   -7.9320 C.3    60  LYS60       0.0206
    113  CE        10.9850   22.1630   -7.4450 C.3    60  LYS60       0.1093
    114  NZ        12.3200   22.8260   -7.4080 N.3    60  LYS60      -0.1314
@<TRIPOS>BOND
     1    71    69   ar
     2    71    70   ar
     3    69    67   ar
     4    70    68   ar
     5    67    66   ar
     6    67    65   ar
     7    66    64   ar
     8    68    65   ar
     9    65    63   ar
    10    64    63   ar
    11    63    62    1
    12    62    59    1
    13    59    60    1
    14    59    58    1
    15    60    61    2
    16    60    72   am
    17    72    73    1
    18   110   111    1
    19   110   107    1
    20    73    74    1
    21   111   112    1
    22    58    56   am
    23    74    75    2
    24    57    56    2
    25    56    55    1
    26   108   107    1
    27   108   109    2
    28   107   106    1
    29     7     6    1
    30   112   113    1
    31    39    38    2
    32    35    33    1
    33   113   114    1
    34    34    32    1
    35    55    54    1
    36     8     6    1
    37    15    14    1
    38     6     5    1
    39     5     2    1
    40    38    37    1
    41    40    41    1
    42    40    37    1
    43    33    32    1
    44    14    16    1
    45    14    13    1
    46    32    29    1
    47    37    36    1
    48    53    52    1
    49    51    52   ar
    50    51    49   ar
    51    97    96    2
    52     1     2    1
    53     2     3    1
    54    52    50   ar
    55    49    47   ar
    56    93    91   ar
    57    45    44    2
    58    42    43    1
    59    43    44    1
    60    43    46    1
    61    13    10    1
    62   101   103   ar
    63   101    99   ar
    64     9     3   am
    65     9    10    1
    66    91    92   ar
    67    91    90    1
    68    96    95    1
    69    29    30    1
    70    29    28    1
    71    98    99    1
    72    98    95    1
    73     3     4    2
    74   103   104   ar
    75    90    87    1
    76    89    88    2
    77    50    48   ar
    78    47    48   ar
    79    47    46    1
    80    10    11    1
    81    30    31    2
    82    99   100   ar
    83    95    94    1
    84    87    88    1
    85    87    86    1
    86   104   105    1
    87   104   102   ar
    88   100   102   ar
    89    11    12    2
    90    86    78   am
    91    79    78    2
    92    84    82   ar
    93    84    85   ar
    94    82    81   ar
    95    24    26   ar
    96    24    22   ar
    97    78    77    1
    98    21    22    1
    99    21    18    1
   100    26    27   ar
   101    17    18    1
   102    85    83   ar
   103    22    23   ar
   104    81    80    1
   105    81    83   ar
   106    18    19    1
   107    77    80    1
   108    77    76    1
   109    19    20    2
   110    27    25   ar
   111    23    25   ar
