@<TRIPOS>MOLECULE
tmp/1sr5C00.pdb
 88 83 0 0 0
SMALL
GASTEIGER

@<TRIPOS>ATOM
      1  N         59.3670  -11.2250   -5.6220 N.3   130  LEU130     -0.1245
      2  CA        58.2850  -10.9020   -4.6920 C.3   130  LEU130      0.1561
      3  C         57.2740   -9.9370   -5.3110 C.2   130  LEU130      0.2260
      4  O         57.2730   -8.7340   -5.0220 O.2   130  LEU130     -0.2867
      5  CB        58.8390  -10.3010   -3.3940 C.3   130  LEU130      0.0270
      6  CG        58.7120  -11.1440   -2.1180 C.3   130  LEU130      0.0019
      7  CD1       57.8490  -12.3630   -2.3960 C.3   130  LEU130      0.0001
      8  CD2       60.0960  -11.5760   -1.6200 C.3   130  LEU130      0.0001
      9  N         52.9970   -9.5270   -6.7060 N.3   132  ALA132     -0.1245
     10  CA        51.6310  -10.0190   -6.6670 C.3   132  ALA132      0.1562
     11  C         51.3980  -10.9110   -7.8660 C.2   132  ALA132      0.2260
     12  O         51.9550  -10.6810   -8.9280 O.2   132  ALA132     -0.2867
     13  CB        50.6700   -8.8540   -6.7000 C.3   132  ALA132      0.0290
     14  N         51.1060  -14.7550   -4.9010 N.3   159  ILE159     -0.1231
     15  CA        51.3000  -13.7290   -3.8920 C.3   159  ILE159      0.1692
     16  C         50.1670  -12.7240   -4.0120 C.2   159  ILE159      0.2592
     17  O         49.6410  -12.4990   -5.1010 O.2   159  ILE159     -0.2718
     18  CB        52.6400  -13.0220   -4.0840 C.3   159  ILE159      0.0266
     19  CG1       53.7680  -14.0270   -3.8590 C.3   159  ILE159      0.0019
     20  CG2       52.7500  -11.8520   -3.1350 C.3   159  ILE159      0.0020
     21  CD1       55.1310  -13.4190   -3.8320 C.3   159  ILE159      0.0001
     22  N         49.7900  -12.1200   -2.8940 N.am  160  VAL160     -0.1966
     23  CA        48.7020  -11.1570   -2.8980 C.3   160  VAL160      0.1727
     24  C         49.1630   -9.7160   -2.7100 C.2   160  VAL160      0.2616
     25  O         50.1570   -9.4520   -2.0420 O.2   160  VAL160     -0.2715
     26  CB        47.6870  -11.5080   -1.7950 C.3   160  VAL160      0.0290
     27  CG1       46.6030  -10.4460   -1.7090 C.3   160  VAL160      0.0023
     28  CG2       47.0880  -12.8880   -2.0700 C.3   160  VAL160      0.0023
     29  N         48.4240   -8.7920   -3.3100 N.am  161  GLU161     -0.1963
     30  CA        48.7040   -7.3640   -3.2240 C.3   161  GLU161      0.1733
     31  C         48.5520   -6.8970   -1.7790 C.2   161  GLU161      0.2616
     32  O         47.5990   -7.2870   -1.0910 O.2   161  GLU161     -0.2715
     33  CB        47.7190   -6.5660   -4.0910 C.3   161  GLU161      0.0429
     34  CG        47.5690   -6.9980   -5.5640 C.3   161  GLU161      0.1163
     35  CD        46.8240   -8.3270   -5.7630 C.2   161  GLU161      0.3649
     36  OE1       46.3520   -8.5830   -6.8920 O.co2 161  GLU161     -0.2457
     37  OE2       46.7160   -9.1250   -4.8100 O.co2 161  GLU161     -0.2457
     38  N         49.4790   -6.0450   -1.3360 N.am  162  ARG162     -0.1977
     39  CA        49.4800   -5.4970    0.0290 C.3   162  ARG162      0.1597
     40  C         48.0770   -5.2180    0.5510 C.2   162  ARG162      0.2287
     41  O         47.6400   -5.8150    1.5340 O.2   162  ARG162     -0.2864
     42  CB        50.2800   -4.1900    0.0850 C.3   162  ARG162      0.0334
     43  CG        51.5670   -4.2550    0.8690 C.3   162  ARG162      0.0492
     44  CD        51.3320   -4.5690    2.3280 C.3   162  ARG162      0.2205
     45  NE        52.6020   -4.7480    3.0170 N.pl3 162  ARG162     -0.0865
     46  CZ        53.5150   -5.6450    2.6600 C.cat 162  ARG162      0.5346
     47  NH1       54.6480   -5.7410    3.3410 N.pl3 162  ARG162      0.1354
     48  NH2       53.2970   -6.4490    1.6250 N.pl3 162  ARG162      0.1354
     49  N         55.3350   -4.3470    6.9400 N.3   175  ASP175     -0.1239
     50  CA        56.1440   -4.4210    5.7330 C.3   175  ASP175      0.1674
     51  C         57.1030   -5.5960    5.8430 C.2   175  ASP175      0.2266
     52  O         57.8770   -5.8580    4.9260 O.2   175  ASP175     -0.2867
     53  CB        56.9520   -3.1360    5.5280 C.3   175  ASP175      0.1410
     54  CG        56.0840   -1.9470    5.1150 C.2   175  ASP175      0.3668
     55  OD1       55.2970   -2.0690    4.1360 O.co2 175  ASP175     -0.2456
     56  OD2       56.2060   -0.8840    5.7720 O.co2 175  ASP175     -0.2456
     57  N         54.3530  -10.7670    4.0000 N.3   178  PHE178     -0.1241
     58  CA        53.5040  -10.7270    2.8210 C.3   178  PHE178      0.1605
     59  C         52.4800  -11.8450    2.9580 C.2   178  PHE178      0.2264
     60  O         52.5470  -12.6350    3.9090 O.2   178  PHE178     -0.2867
     61  CB        54.3370  -10.9000    1.5540 C.3   178  PHE178      0.0534
     62  CG        55.0250  -12.2240    1.4520 C.ar  178  PHE178     -0.0203
     63  CD1       54.4490  -13.2650    0.7360 C.ar  178  PHE178     -0.0042
     64  CD2       56.2640  -12.4250    2.0520 C.ar  178  PHE178     -0.0042
     65  CE1       55.1040  -14.4940    0.6160 C.ar  178  PHE178     -0.0003
     66  CE2       56.9280  -13.6480    1.9400 C.ar  178  PHE178     -0.0003
     67  CZ        56.3460  -14.6850    1.2190 C.ar  178  PHE178     -0.0000
     68  N         58.6900  -11.9780    5.7400 N.3   234  HIS234     -0.1241
     69  CA        59.4100  -11.5860    4.5400 C.3   234  HIS234      0.1621
     70  C         60.8970  -11.8670    4.7390 C.2   234  HIS234      0.2264
     71  O         61.6330  -10.9790    5.1570 O.2   234  HIS234     -0.2867
     72  CB        59.1890  -10.1010    4.3210 C.3   234  HIS234      0.0745
     73  CG        59.4640   -9.6470    2.9300 C.ar  234  HIS234      0.0817
     74  ND1       60.6150   -9.9840    2.2540 N.ar  234  HIS234     -0.2268
     75  CD2       58.7490   -8.8580    2.0950 C.ar  234  HIS234      0.1154
     76  CE1       60.5990   -9.4200    1.0580 C.ar  234  HIS234      0.1986
     77  NE2       59.4770   -8.7310    0.9370 N.ar  234  HIS234     -0.2212
     78  N         63.4400   -9.1740    3.5910 N.3   237  ARG237     -0.1245
     79  CA        63.2360   -7.9570    4.3560 C.3   237  ARG237      0.1563
     80  C         63.9700   -8.0460    5.6880 C.2   237  ARG237      0.2260
     81  O         64.1800   -7.0350    6.3480 O.2   237  ARG237     -0.2867
     82  CB        61.7380   -7.7670    4.5960 C.3   237  ARG237      0.0307
     83  CG        61.2910   -6.3640    4.9360 C.3   237  ARG237      0.0489
     84  CD        61.3350   -5.4470    3.7190 C.3   237  ARG237      0.2205
     85  NE        60.5180   -4.2400    3.8870 N.pl3 237  ARG237     -0.0865
     86  CZ        60.5680   -3.4210    4.9420 C.cat 237  ARG237      0.5346
     87  NH1       59.7810   -2.3480    4.9940 N.pl3 237  ARG237      0.1354
     88  NH2       61.3940   -3.6700    5.9540 N.pl3 237  ARG237      0.1354
@<TRIPOS>BOND
     1    12    11    2
     2    11    10    1
     3    36    35   ar
     4     9    10    1
     5    13    10    1
     6    35    34    1
     7    35    37   ar
     8     1     2    1
     9    34    33    1
    10     3     4    2
    11     3     2    1
    12    17    16    2
    13    14    15    1
    14     2     5    1
    15    33    30    1
    16    18    15    1
    17    18    19    1
    18    18    20    1
    19    16    15    1
    20    16    22   am
    21    19    21    1
    22     5     6    1
    23    29    30    1
    24    29    24   am
    25    30    31    1
    26    23    22    1
    27    23    24    1
    28    23    26    1
    29    24    25    2
    30     7     6    1
    31     6     8    1
    32    28    26    1
    33    26    27    1
    34    31    38   am
    35    31    32    2
    36    38    39    1
    37    39    42    1
    38    39    40    1
    39    42    43    1
    40    40    41    2
    41    65    63   ar
    42    65    67   ar
    43    63    62   ar
    44    43    44    1
    45    77    76   ar
    46    77    75   ar
    47    76    74   ar
    48    67    66   ar
    49    62    61    1
    50    62    64   ar
    51    61    58    1
    52    48    46    1
    53    66    64   ar
    54    75    73   ar
    55    74    73   ar
    56    44    45    1
    57    46    45    2
    58    46    47    1
    59    58    59    1
    60    58    57    1
    61    73    72    1
    62    59    60    2
    63    78    79    1
    64    84    85    1
    65    84    83    1
    66    85    86    2
    67    55    54   ar
    68    72    69    1
    69    79    82    1
    70    79    80    1
    71    69    70    1
    72    69    68    1
    73    82    83    1
    74    70    71    2
    75    52    51    2
    76    86    87    1
    77    86    88    1
    78    54    53    1
    79    54    56   ar
    80    53    50    1
    81    80    81    2
    82    50    51    1
    83    50    49    1
