@<TRIPOS>MOLECULE
tmp/1sr7A00.pdb
 204 192 0 0 0
SMALL
GASTEIGER

@<TRIPOS>ATOM
      1  N        -10.3920   -8.7100   19.9700 N.3    32  LEU32      -0.1245
      2  CA        -9.2750   -7.8540   20.3470 C.3    32  LEU32       0.1561
      3  C         -9.7730   -6.7070   21.1830 C.2    32  LEU32       0.2260
      4  O         -9.1110   -6.3200   22.1950 O.2    32  LEU32      -0.2867
      5  CB        -8.5410   -7.2930   19.1160 C.3    32  LEU32       0.0270
      6  CG        -7.8580   -8.3280   18.2710 C.3    32  LEU32       0.0019
      7  CD1       -7.2890   -7.7920   16.8980 C.3    32  LEU32       0.0001
      8  CD2       -6.6990   -9.0590   19.1010 C.3    32  LEU32       0.0001
      9  N        -10.1660   -7.9840   24.6300 N.3    35  LEU35      -0.1231
     10  CA        -8.9220   -8.2370   25.2510 C.3    35  LEU35       0.1693
     11  C         -8.3150   -6.8960   25.7820 C.2    35  LEU35       0.2592
     12  O         -7.8270   -6.8200   26.9580 O.2    35  LEU35      -0.2718
     13  CB        -7.9520   -8.9410   24.3360 C.3    35  LEU35       0.0284
     14  CG        -8.3370  -10.4470   24.0730 C.3    35  LEU35       0.0019
     15  CD1       -7.6140  -10.8980   22.9050 C.3    35  LEU35       0.0001
     16  CD2       -8.0860  -11.3130   25.3740 C.3    35  LEU35       0.0001
     17  N         -8.5050   -5.8470   24.9760 N.am   36  ASN36      -0.1974
     18  CA        -7.9200   -4.5370   25.4760 C.3    36  ASN36       0.1688
     19  C         -8.7540   -3.9540   26.6000 C.2    36  ASN36       0.2292
     20  O         -8.1860   -3.2890   27.4890 O.2    36  ASN36      -0.2864
     21  CB        -7.9050   -3.5830   24.3070 C.3    36  ASN36       0.1181
     22  CG        -6.8170   -3.8300   23.3750 C.2    36  ASN36       0.2629
     23  OD1       -5.8130   -4.4790   23.6390 O.2    36  ASN36      -0.2716
     24  ND2       -6.9940   -3.2390   22.2040 N.am   36  ASN36      -0.0877
     25  N        -10.2640   -5.8510   28.8790 N.3    38  LEU38      -0.1231
     26  CA        -9.7560   -6.5530   30.0150 C.3    38  LEU38       0.1693
     27  C         -8.4100   -5.9440   30.4640 C.2    38  LEU38       0.2592
     28  O         -8.1930   -5.8380   31.7100 O.2    38  LEU38      -0.2718
     29  CB        -9.6120   -8.0880   29.6060 C.3    38  LEU38       0.0284
     30  CG        -9.0210   -8.9490   30.7210 C.3    38  LEU38       0.0019
     31  CD1       -9.8790   -8.9420   31.9510 C.3    38  LEU38       0.0001
     32  CD2       -8.9220  -10.4070   30.0820 C.3    38  LEU38       0.0001
     33  N         -7.5040   -5.6830   29.5030 N.am   39  GLY39      -0.1957
     34  CA        -6.1370   -5.1390   29.7640 C.3    39  GLY39       0.1869
     35  C         -6.3000   -3.8140   30.5920 C.2    39  GLY39       0.2309
     36  O         -5.5660   -3.6170   31.5700 O.2    39  GLY39      -0.2863
     37  N         -7.0400   -4.7840   34.0910 N.3    42  GLN42      -0.1245
     38  CA        -5.8760   -5.4010   34.6820 C.3    42  GLN42       0.1566
     39  C         -4.8520   -4.3440   34.9750 C.2    42  GLN42       0.2260
     40  O         -4.2090   -4.4890   36.0070 O.2    42  GLN42      -0.2867
     41  CB        -5.2960   -6.5710   33.8080 C.3    42  GLN42       0.0367
     42  CG        -6.2920   -7.7160   33.7120 C.3    42  GLN42       0.0905
     43  CD        -5.7180   -8.7850   32.9300 C.2    42  GLN42       0.2608
     44  OE1       -6.4310   -9.8830   32.8510 O.2    42  GLN42      -0.2717
     45  NE2       -4.4930   -8.6640   32.4140 N.am   42  GLN42      -0.0878
     46  N          4.2530   -3.5790   32.2100 N.3    72  TRP72      -0.1227
     47  CA         2.8100   -3.9380   32.2650 C.3    72  TRP72       0.1737
     48  C          2.5390   -5.1810   31.3830 C.2    72  TRP72       0.2592
     49  O          1.8090   -6.0350   31.8660 O.2    72  TRP72      -0.2718
     50  CB         1.8890   -2.7630   31.9370 C.3    72  TRP72       0.0564
     51  CG         2.0200   -2.3000   30.4950 C.ar   72  TRP72       0.0003
     52  CD1        2.9370   -1.3650   30.0130 C.ar   72  TRP72       0.0946
     53  CD2        1.1680   -2.6480   29.4000 C.ar   72  TRP72       0.0152
     54  NE1        2.7710   -1.2330   28.6400 N.ar   72  TRP72      -0.2442
     55  CE2        1.6730   -1.9900   28.2630 C.ar   72  TRP72       0.0810
     56  CE3        0.0700   -3.5070   29.2830 C.ar   72  TRP72       0.0012
     57  CZ2        1.1000   -2.1110   27.0010 C.ar   72  TRP72       0.0191
     58  CZ3       -0.5050   -3.6620   27.9670 C.ar   72  TRP72       0.0001
     59  CH2        0.0110   -2.9550   26.8870 C.ar   72  TRP72       0.0015
     60  N          2.9350   -5.1940   30.1080 N.am   73  MET73      -0.2032
     61  CA         2.4610   -6.2910   29.2480 C.3    73  MET73       0.1291
     62  C          3.1680   -7.5290   29.7320 C.3    73  MET73       0.2036
     63  O          2.4720   -8.6120   29.7310 O.3    73  MET73      -0.2185
     64  CB         2.7970   -6.0090   27.7720 C.3    73  MET73       0.0360
     65  CG         1.7130   -6.9920   26.7260 C.3    73  MET73       0.0594
     66  SD         2.3720   -6.7410   25.2220 S.3    73  MET73      -0.1393
     67  CE         1.6960   -5.2100   24.8250 C.3    73  MET73       0.0692
     68  N          1.2440   -8.8580   32.6100 N.3    76  MET76      -0.1230
     69  CA        -0.1200   -9.3580   32.2620 C.3    76  MET76       0.1702
     70  C         -0.0080  -10.6760   31.4940 C.2    76  MET76       0.2592
     71  O         -0.8410  -11.5700   31.7260 O.2    76  MET76      -0.2718
     72  CB        -0.9130   -8.2670   31.5250 C.3    76  MET76       0.0401
     73  CG        -1.3980   -7.2070   32.6200 C.3    76  MET76       0.0596
     74  SD        -2.1400   -5.8660   31.5760 S.3    76  MET76      -0.1393
     75  CE        -1.8220   -4.4090   32.6260 C.3    76  MET76       0.0692
     76  N          0.9320  -10.8490   30.6530 N.am   77  VAL77      -0.1980
     77  CA         1.1120  -12.1830   29.9960 C.3    77  VAL77       0.1595
     78  C          1.6190  -13.1890   31.0040 C.2    77  VAL77       0.2287
     79  O          1.2140  -14.3650   30.9060 O.2    77  VAL77      -0.2864
     80  CB         1.9990  -12.0310   28.7750 C.3    77  VAL77       0.0276
     81  CG1        3.3850  -11.9400   29.0700 C.3    77  VAL77       0.0022
     82  CG2        1.7740  -13.3010   27.8100 C.3    77  VAL77       0.0022
     83  N         -1.5100  -14.1970   32.8490 N.3    80  LEU80      -0.1301
     84  CA        -2.3230  -15.0330   31.8780 C.3    80  LEU80       0.1247
     85  C         -1.7080  -16.4300   31.9410 C.3    80  LEU80       0.2009
     86  O         -2.5010  -17.4520   32.0090 O.3    80  LEU80      -0.2188
     87  CB        -2.1800  -14.5260   30.4140 C.3    80  LEU80       0.0217
     88  CG        -2.7410  -15.4580   29.3620 C.3    80  LEU80       0.0015
     89  CD1       -4.2420  -15.7120   29.4440 C.3    80  LEU80       0.0000
     90  CD2       -2.3430  -14.7870   28.0310 C.3    80  LEU80       0.0000
     91  N         -2.9110  -18.1460   35.2640 N.3    83  ARG83      -0.1245
     92  CA        -4.3230  -18.5260   35.2870 C.3    83  ARG83       0.1563
     93  C         -4.5120  -19.7360   34.3680 C.2    83  ARG83       0.2260
     94  O         -5.3520  -20.5800   34.6580 O.2    83  ARG83      -0.2867
     95  CB        -5.1950  -17.3740   34.8570 C.3    83  ARG83       0.0307
     96  CG        -5.1430  -16.2340   35.8910 C.3    83  ARG83       0.0489
     97  CD        -6.2380  -15.2110   35.4970 C.3    83  ARG83       0.2205
     98  NE        -6.0110  -14.5710   34.2030 N.pl3  83  ARG83      -0.0865
     99  CZ        -5.1760  -13.5620   33.9420 C.cat  83  ARG83       0.5346
    100  NH1       -5.1050  -13.0000   32.7430 N.pl3  83  ARG83       0.1354
    101  NH2       -4.5210  -13.0050   34.9710 N.pl3  83  ARG83       0.1354
    102  N         -7.8520  -15.8950   29.8890 N.3    95  PHE95      -0.1241
    103  CA        -7.6470  -14.4220   30.0160 C.3    95  PHE95       0.1605
    104  C         -8.5020  -13.9440   31.1940 C.2    95  PHE95       0.2264
    105  O         -8.0070  -13.0830   32.0090 O.2    95  PHE95      -0.2867
    106  CB        -8.0300  -13.6310   28.7120 C.3    95  PHE95       0.0534
    107  CG        -7.1340  -13.8560   27.5750 C.ar   95  PHE95      -0.0203
    108  CD1       -7.4240  -14.9600   26.6920 C.ar   95  PHE95      -0.0042
    109  CD2       -5.9630  -13.1110   27.4170 C.ar   95  PHE95      -0.0042
    110  CE1       -6.6900  -15.1910   25.6270 C.ar   95  PHE95      -0.0003
    111  CE2       -5.0620  -13.4340   26.3390 C.ar   95  PHE95      -0.0003
    112  CZ        -5.4150  -14.5130   25.4730 C.ar   95  PHE95      -0.0000
    113  N         -3.8140  -13.7460   14.7280 N.3   111  PHE111     -0.1241
    114  CA        -4.3670  -13.9940   16.1050 C.3   111  PHE111      0.1605
    115  C         -3.9080  -15.3510   16.7190 C.2   111  PHE111      0.2264
    116  O         -3.4200  -15.4680   17.8550 O.2   111  PHE111     -0.2867
    117  CB        -5.8570  -13.9390   15.9460 C.3   111  PHE111      0.0534
    118  CG        -6.6040  -13.8910   17.2260 C.ar  111  PHE111     -0.0203
    119  CD1       -6.7760  -15.0030   18.0300 C.ar  111  PHE111     -0.0042
    120  CD2       -7.1230  -12.7230   17.6420 C.ar  111  PHE111     -0.0042
    121  CE1       -7.4750  -14.9060   19.2690 C.ar  111  PHE111     -0.0003
    122  CE2       -7.8300  -12.6050   18.8940 C.ar  111  PHE111     -0.0003
    123  CZ        -8.0620  -13.6790   19.6660 C.ar  111  PHE111     -0.0000
    124  N         -0.2000  -15.2530   17.6470 N.3   114  LEU114     -0.1231
    125  CA         0.0770  -14.4970   18.8810 C.3   114  LEU114      0.1693
    126  C         -0.3000  -15.3320   20.1160 C.2   114  LEU114      0.2592
    127  O          0.4250  -15.3140   21.1650 O.2   114  LEU114     -0.2718
    128  CB        -0.7130  -13.1500   18.8670 C.3   114  LEU114      0.0284
    129  CG        -0.1060  -12.1690   17.8360 C.3   114  LEU114      0.0019
    130  CD1       -1.1600  -11.0780   17.4410 C.3   114  LEU114      0.0001
    131  CD2        1.1230  -11.5000   18.4630 C.3   114  LEU114      0.0001
    132  N         -1.4180  -16.0470   20.0050 N.am  115  CYS115     -0.1970
    133  CA        -1.7560  -16.9460   21.1080 C.3   115  CYS115      0.1712
    134  C         -0.7050  -18.0220   21.3520 C.2   115  CYS115      0.2296
    135  O         -0.3070  -18.3180   22.4820 O.2   115  CYS115     -0.2864
    136  CB        -3.1280  -17.5120   20.8320 C.3   115  CYS115      0.0983
    137  SG        -4.5400  -16.4700   20.9550 S.3   115  CYS115     -0.0798
    138  N          2.0660  -16.5790   23.3890 N.3   118  MET118     -0.1245
    139  CA         1.6730  -16.4220   24.8180 C.3   118  MET118      0.1570
    140  C          1.6300  -17.8130   25.5380 C.2   118  MET118      0.2261
    141  O          2.0100  -17.8900   26.7000 O.2   118  MET118     -0.2867
    142  CB         0.3380  -15.6980   24.9820 C.3   118  MET118      0.0387
    143  CG         0.3740  -14.3310   24.3990 C.3   118  MET118      0.0595
    144  SD        -1.0120  -13.3300   24.7400 S.3   118  MET118     -0.1393
    145  CE        -1.9680  -13.7840   24.1040 C.3   118  MET118      0.0692
    146  N          5.0180   -9.2720   21.1550 N.3   204  LEU204     -0.1245
    147  CA         3.6610   -8.8390   21.5110 C.3   204  LEU204      0.1561
    148  C          3.6400   -7.2550   21.5310 C.2   204  LEU204      0.2260
    149  O          2.6830   -6.6610   21.1140 O.2   204  LEU204     -0.2867
    150  CB         3.3310   -9.3060   22.9700 C.3   204  LEU204      0.0270
    151  CG         3.4270  -10.8690   23.0530 C.3   204  LEU204      0.0019
    152  CD1        2.9160  -11.1730   24.4940 C.3   204  LEU204      0.0001
    153  CD2        2.5490  -11.5610   22.0590 C.3   204  LEU204      0.0001
    154  N          3.3840   -6.1880   17.8230 N.3   207  TYR207     -0.1227
    155  CA         2.0110   -6.2480   17.3080 C.3   207  TYR207      0.1736
    156  C          1.0720   -5.2560   17.9320 C.2   207  TYR207      0.2595
    157  O          0.2940   -4.6030   17.2310 O.2   207  TYR207     -0.2718
    158  CB         1.5060   -7.6790   17.4330 C.3   207  TYR207      0.0548
    159  CG         0.1290   -7.8600   16.7180 C.ar  207  TYR207     -0.0200
    160  CD1        0.1490   -8.2900   15.3510 C.ar  207  TYR207     -0.0009
    161  CD2       -1.1020   -7.6450   17.3500 C.ar  207  TYR207     -0.0009
    162  CE1       -1.0050   -8.4560   14.7250 C.ar  207  TYR207      0.0417
    163  CE2       -2.3330   -7.8300   16.6610 C.ar  207  TYR207      0.0417
    164  CZ        -2.2550   -8.2150   15.3650 C.ar  207  TYR207      0.1957
    165  OH        -3.4130   -8.4620   14.6150 O.3   207  TYR207     -0.2866
    166  N          1.2090   -5.0610   19.2690 N.am  208  CYS208     -0.1970
    167  CA         0.4230   -4.0500   19.9310 C.3   208  CYS208      0.1712
    168  C          0.5840   -2.6510   19.3610 C.2   208  CYS208      0.2296
    169  O         -0.3560   -2.0050   19.0380 O.2   208  CYS208     -0.2864
    170  CB         0.7010   -4.1190   21.4180 C.3   208  CYS208      0.0983
    171  SG        -0.0940   -2.8760   22.4010 S.3   208  CYS208     -0.0798
    172  N         -0.8840   -2.3060   15.7810 N.3   211  THR211     -0.1218
    173  CA        -2.3800   -2.2530   15.7680 C.3   211  THR211      0.1862
    174  C         -2.7070   -0.8480   16.2860 C.2   211  THR211      0.2287
    175  O         -3.6040   -0.1430   15.7850 O.2   211  THR211     -0.2866
    176  CB        -2.9290   -3.3240   16.6420 C.3   211  THR211      0.1770
    177  OG1       -2.5250   -4.5660   16.1490 O.3   211  THR211     -0.2211
    178  CG2       -4.4580   -3.2980   16.7060 C.3   211  THR211      0.0375
    179  N        -10.3060   -1.4040   16.1900 N.3   220  VAL220     -0.1245
    180  CA        -9.8020   -2.0200   17.4550 C.3   220  VAL220      0.1561
    181  C         -9.6730   -0.8690   18.4510 C.2   220  VAL220      0.2260
    182  O         -8.8200   -0.0140   18.2710 O.2   220  VAL220     -0.2867
    183  CB        -8.5110   -2.8230   17.3530 C.3   220  VAL220      0.0252
    184  CG1       -8.0190   -3.3060   18.8090 C.3   220  VAL220      0.0019
    185  CG2       -8.5660   -4.1330   16.4350 C.3   220  VAL220      0.0019
    186  N         -8.5220    0.8390   21.9290 N.3   222  PHE222     -0.1241
    187  CA        -7.6230    0.7770   23.0630 C.3   222  PHE222      0.1605
    188  C         -8.0830    1.7670   24.0710 C.2   222  PHE222      0.2264
    189  O         -8.1990    2.9550   23.7450 O.2   222  PHE222     -0.2867
    190  CB        -6.2530    1.2290   22.6350 C.3   222  PHE222      0.0534
    191  CG        -5.5310    0.1390   21.7750 C.ar  222  PHE222     -0.0203
    192  CD1       -5.8030    0.0020   20.4220 C.ar  222  PHE222     -0.0042
    193  CD2       -4.5770   -0.6770   22.3640 C.ar  222  PHE222     -0.0042
    194  CE1       -5.1790   -0.9600   19.6910 C.ar  222  PHE222     -0.0003
    195  CE2       -3.8990   -1.6720   21.6270 C.ar  222  PHE222     -0.0003
    196  CZ        -4.2160   -1.8120   20.2660 C.ar  222  PHE222     -0.0000
    197  N         -4.5570    2.3290   29.0010 N.3   226  MET226     -0.1245
    198  CA        -3.6360    1.5050   28.1980 C.3   226  MET226      0.1570
    199  C         -3.0600    2.3470   27.0480 C.2   226  MET226      0.2261
    200  O         -1.8930    2.1820   26.7380 O.2   226  MET226     -0.2867
    201  CB        -4.4440    0.3650   27.5430 C.3   226  MET226      0.0387
    202  CG        -3.3650   -0.5990   26.8940 C.3   226  MET226      0.0595
    203  SD        -4.3230   -1.9730   26.0980 S.3   226  MET226     -0.1393
    204  CE        -3.0260   -2.9150   25.7550 C.3   226  MET226      0.0692
@<TRIPOS>BOND
     1   165   164    1
     2   162   160   ar
     3   162   164   ar
     4   113   114    1
     5   160   159   ar
     6   164   163   ar
     7   173   172    1
     8   173   174    1
     9   173   176    1
    10   175   174    2
    11   117   114    1
    12   117   118    1
    13   114   115    1
    14   177   176    1
    15   179   180    1
    16   185   183    1
    17   176   178    1
    18   163   161   ar
    19   159   161   ar
    20   159   158    1
    21   115   116    2
    22     7     6    1
    23   118   120   ar
    24   118   119   ar
    25   157   156    2
    26   155   158    1
    27   155   154    1
    28   155   156    1
    29   183   180    1
    30   183   184    1
    31   130   129    1
    32   180   181    1
    33   120   122   ar
    34   124   125    1
    35   129   131    1
    36   129   128    1
    37   156   166   am
    38   119   121   ar
    39     6     8    1
    40     6     5    1
    41   182   181    2
    42   128   125    1
    43   125   126    1
    44   122   123   ar
    45   169   168    2
    46     5     2    1
    47   166   167    1
    48   121   123   ar
    49   168   167    1
    50   194   196   ar
    51   194   192   ar
    52   167   170    1
    53     1     2    1
    54   132   126   am
    55   132   133    1
    56   126   127    2
    57   196   195   ar
    58     2     3    1
    59   192   191   ar
    60   136   137    1
    61   136   133    1
    62   133   134    1
    63   149   148    2
    64   146   147    1
    65     3     4    2
    66   134   135    2
    67   170   171    1
    68   147   148    1
    69   147   150    1
    70   195   193   ar
    71   191   193   ar
    72   191   190    1
    73   186   187    1
    74   153   151    1
    75    24    22   am
    76   190   187    1
    77    15    14    1
    78   150   151    1
    79   151   152    1
    80   187   188    1
    81    22    23    2
    82    22    21    1
    83   138   139    1
    84   189   188    2
    85    14    13    1
    86    14    16    1
    87   145   144    1
    88    21    18    1
    89    13    10    1
    90   143   144    1
    91   143   142    1
    92     9    10    1
    93   139   142    1
    94   139   140    1
    95    67    66    1
    96    17    18    1
    97    17    11   am
    98    66    65    1
    99    10    11    1
   100   112   110   ar
   101   112   111   ar
   102    18    19    1
   103   140   141    2
   104   110   108   ar
   105   204   203    1
   106    11    12    2
   107   203   202    1
   108   111   109   ar
   109    19    20    2
   110   108   107   ar
   111    65    64    1
   112   200   199    2
   113    59    57   ar
   114    59    58   ar
   115   202   201    1
   116    57    55   ar
   117   199   198    1
   118   109   107   ar
   119   201   198    1
   120   107   106    1
   121    64    61    1
   122    82    80    1
   123    58    56   ar
   124    90    88    1
   125   198   197    1
   126    55    54   ar
   127    55    53   ar
   128    54    52   ar
   129   106   103    1
   130    80    81    1
   131    80    77    1
   132    25    26    1
   133    61    62    1
   134    61    60    1
   135    56    53   ar
   136    88    89    1
   137    88    87    1
   138    53    51   ar
   139    33    34    1
   140    33    27   am
   141    29    26    1
   142    29    30    1
   143    63    62    1
   144    34    35    1
   145   102   103    1
   146    77    76    1
   147    77    78    1
   148    52    51   ar
   149    26    27    1
   150   103   104    1
   151    32    30    1
   152    60    48   am
   153    87    84    1
   154    27    28    2
   155    51    50    1
   156    35    36    2
   157    76    70   am
   158    30    31    1
   159    79    78    2
   160   104   105    2
   161    48    49    2
   162    48    47    1
   163    70    71    2
   164    70    69    1
   165    72    69    1
   166    72    73    1
   167    74    73    1
   168    74    75    1
   169    84    85    1
   170    84    83    1
   171    50    47    1
   172    85    86    1
   173    46    47    1
   174    69    68    1
   175    45    43   am
   176   100    99    1
   177    44    43    2
   178    43    42    1
   179    42    41    1
   180    41    38    1
   181    99    98    2
   182    99   101    1
   183    37    38    1
   184    98    97    1
   185    93    94    2
   186    93    92    1
   187    38    39    1
   188    95    92    1
   189    95    96    1
   190    39    40    2
   191    91    92    1
   192    97    96    1
