@<TRIPOS>MOLECULE
tmp/1sr9A00.pdb
 106 100 0 0 0
SMALL
GASTEIGER

@<TRIPOS>ATOM
      1  N         39.3290   23.0010    0.4230 N.3    62  ARG62      -0.1231
      2  CA        38.8170   22.1600    1.5220 C.3    62  ARG62       0.1694
      3  C         37.9580   20.9860    1.0370 C.2    62  ARG62       0.2592
      4  O         38.4020   19.8240    1.0790 O.2    62  ARG62      -0.2718
      5  CB        38.0630   23.0450    2.5430 C.3    62  ARG62       0.0321
      6  CG        37.7660   22.3880    3.8970 C.3    62  ARG62       0.0489
      7  CD        36.6070   21.3760    3.8570 C.3    62  ARG62       0.2205
      8  NE        35.3380   22.0210    3.5070 N.pl3  62  ARG62      -0.0865
      9  CZ        34.1830   21.4010    3.3790 C.cat  62  ARG62       0.5346
     10  NH1       34.0890   20.0880    3.5100 N.pl3  62  ARG62       0.1354
     11  NH2       33.1050   22.1150    3.1110 N.pl3  62  ARG62       0.1354
     12  N         36.7260   21.2710    0.6150 N.am   63  ASP63      -0.1974
     13  CA        35.8230   20.2450    0.0740 C.3    63  ASP63       0.1709
     14  C         36.4430   19.5950   -1.1530 C.2    63  ASP63       0.2293
     15  O         36.3650   18.4100   -1.3200 O.2    63  ASP63      -0.2864
     16  CB        34.4830   20.8820   -0.3130 C.3    63  ASP63       0.1436
     17  CG        33.2730   20.0020    0.0090 C.2    63  ASP63       0.3671
     18  OD1       33.3660   18.7480   -0.0770 O.co2  63  ASP63      -0.2456
     19  OD2       32.1720   20.5170    0.2910 O.co2  63  ASP63      -0.2456
     20  N         37.1270   25.6800    8.2390 N.3   122  LEU122     -0.1245
     21  CA        36.0410   24.8130    8.6180 C.3   122  LEU122      0.1561
     22  C         36.4090   24.1450    9.9310 C.2   122  LEU122      0.2260
     23  O         37.5740   23.7100   10.0920 O.2   122  LEU122     -0.2867
     24  CB        35.8170   23.7420    7.5400 C.3   122  LEU122      0.0270
     25  CG        34.6390   22.7940    7.8490 C.3   122  LEU122      0.0019
     26  CD1       33.2630   23.5030    7.6260 C.3   122  LEU122      0.0001
     27  CD2       34.7290   21.4670    7.0740 C.3   122  LEU122      0.0001
     28  N         33.8200   28.8090   10.0830 N.3   146  HIS146     -0.1241
     29  CA        32.6510   28.0730    9.6070 C.3   146  HIS146      0.1621
     30  C         32.5140   26.8360   10.4610 C.2   146  HIS146      0.2264
     31  O         33.2970   25.9030   10.3400 O.2   146  HIS146     -0.2867
     32  CB        32.8240   27.7240    8.1000 C.3   146  HIS146      0.0745
     33  CG        31.7660   26.8090    7.5290 C.ar  146  HIS146      0.0817
     34  ND1       31.9100   26.1920    6.2940 N.ar  146  HIS146     -0.2268
     35  CD2       30.5520   26.4210    8.0000 C.ar  146  HIS146      0.1154
     36  CE1       30.8450   25.4380    6.0540 C.ar  146  HIS146      0.1986
     37  NE2       29.9940   25.5710    7.0570 N.ar  146  HIS146     -0.2212
     38  N         29.9590   23.7050   11.9390 N.3   148  TYR148     -0.1241
     39  CA        28.8190   22.9290   11.4760 C.3   148  TYR148      0.1605
     40  C         28.5870   21.7010   12.3220 C.2   148  TYR148      0.2264
     41  O         29.4790   21.2030   13.0020 O.2   148  TYR148     -0.2867
     42  CB        29.0230   22.4980   10.0180 C.3   148  TYR148      0.0534
     43  CG        29.9910   21.3600    9.8810 C.ar  148  TYR148     -0.0201
     44  CD1       29.5430   20.0370    9.7780 C.ar  148  TYR148     -0.0009
     45  CD2       31.3560   21.5830    9.9100 C.ar  148  TYR148     -0.0009
     46  CE1       30.4380   18.9600    9.7120 C.ar  148  TYR148      0.0417
     47  CE2       32.2540   20.5180    9.8400 C.ar  148  TYR148      0.0417
     48  CZ        31.7860   19.2200    9.7140 C.ar  148  TYR148      0.1957
     49  OH        32.6740   18.1880    9.6140 O.3   148  TYR148     -0.2866
     50  N         26.5530   25.9900    9.2560 N.3   195  SER195     -0.1217
     51  CA        25.8310   25.0700    8.3550 C.3   195  SER195      0.1889
     52  C         25.1210   23.9650    9.1580 C.2   195  SER195      0.2288
     53  O         25.7450   23.2500    9.9110 O.2   195  SER195     -0.2866
     54  CB        26.7830   24.3690    7.3660 C.3   195  SER195      0.2089
     55  OG        27.4840   25.2880    6.5550 O.3   195  SER195     -0.2183
     56  N         24.4880   20.7690    8.6580 N.3   197  GLU197     -0.1245
     57  CA        25.0060   19.8700    7.6810 C.3   197  GLU197      0.1567
     58  C         23.9400   18.7730    7.4100 C.2   197  GLU197      0.2260
     59  O         23.1680   18.4020    8.3120 O.2   197  GLU197     -0.2867
     60  CB        26.3580   19.3170    8.1660 C.3   197  GLU197      0.0388
     61  CG        27.1530   18.5740    7.1060 C.3   197  GLU197      0.1160
     62  CD        26.9420   17.0750    7.1220 C.2   197  GLU197      0.3649
     63  OE1       25.9160   16.6250    7.6490 O.co2 197  GLU197     -0.2457
     64  OE2       27.8270   16.3340    6.6250 O.co2 197  GLU197     -0.2457
     65  N         24.6650   28.7360    5.9230 N.3   229  ASN229     -0.1240
     66  CA        25.0100   28.0240    4.6840 C.3   229  ASN229      0.1653
     67  C         24.2130   26.7370    4.7000 C.2   229  ASN229      0.2266
     68  O         24.3200   25.9660    5.6260 O.2   229  ASN229     -0.2867
     69  CB        26.5150   27.7820    4.6620 C.3   229  ASN229      0.1155
     70  CG        26.9880   26.9990    3.4630 C.2   229  ASN229      0.2627
     71  OD1       27.5110   25.8650    3.6090 O.2   229  ASN229     -0.2716
     72  ND2       26.8390   27.5800    2.2850 N.am  229  ASN229     -0.0877
     73  N         23.4850   23.3830    2.9640 N.3   231  PRO231     -0.2116
     74  CA        24.0350   22.4510    1.9850 C.3   231  PRO231      0.1372
     75  C         23.1060   21.3280    1.5500 C.2   231  PRO231      0.2244
     76  O         22.3670   20.7320    2.3590 O.2   231  PRO231     -0.2868
     77  CB        25.2010   21.8580    2.7170 C.3   231  PRO231      0.0268
     78  CG        24.7110   21.8700    4.2040 C.3   231  PRO231      0.0207
     79  CD        23.9500   23.0970    4.3290 C.3   231  PRO231      0.0892
     80  N         24.1350   18.4340    1.0940 N.3   233  THR233     -0.1218
     81  CA        25.2730   17.5910    1.4240 C.3   233  THR233      0.1862
     82  C         25.2450   16.3460    0.5680 C.2   233  THR233      0.2287
     83  O         26.2690   15.9300   -0.0030 O.2   233  THR233     -0.2866
     84  CB        25.2000   17.2210    2.8950 C.3   233  THR233      0.1770
     85  OG1       25.2450   18.4250    3.6650 O.3   233  THR233     -0.2211
     86  CG2       26.4380   16.4450    3.3120 C.3   233  THR233      0.0375
     87  N         25.2170   25.5440   -0.7150 N.3   262  HIS262     -0.1241
     88  CA        26.3430   24.6340   -0.8490 C.3   262  HIS262      0.1621
     89  C         25.8120   23.3340   -1.4350 C.2   262  HIS262      0.2264
     90  O         25.6390   22.3500   -0.7300 O.2   262  HIS262     -0.2867
     91  CB        26.9820   24.4330    0.5400 C.3   262  HIS262      0.0745
     92  CG        28.1850   23.5280    0.5640 C.ar  262  HIS262      0.0817
     93  ND1       29.4790   24.0000    0.7080 N.ar  262  HIS262     -0.2268
     94  CD2       28.2770   22.1790    0.5860 C.ar  262  HIS262      0.1154
     95  CE1       30.3130   22.9780    0.7190 C.ar  262  HIS262      0.1986
     96  NE2       29.6050   21.8560    0.6890 N.ar  262  HIS262     -0.2212
     97  N         25.7850   19.8130   -3.5940 N.3   264  HIS264     -0.1241
     98  CA        26.5700   18.7450   -4.2330 C.3   264  HIS264      0.1621
     99  C         25.7610   18.1950   -5.4350 C.2   264  HIS264      0.2264
    100  O         24.6230   18.5470   -5.5870 O.2   264  HIS264     -0.2867
    101  CB        26.9420   17.6750   -3.2320 C.3   264  HIS264      0.0745
    102  CG        28.0630   18.0740   -2.3360 C.ar  264  HIS264      0.0817
    103  ND1       29.3830   17.8910   -2.6880 N.ar  264  HIS264     -0.2268
    104  CD2       28.0790   18.7390   -1.1500 C.ar  264  HIS264      0.1154
    105  CE1       30.1600   18.3740   -1.7300 C.ar  264  HIS264      0.1986
    106  NE2       29.3930   18.8950   -0.7930 N.ar  264  HIS264     -0.2212
@<TRIPOS>BOND
     1   100    99    2
     2    99    98    1
     3    98    97    1
     4    98   101    1
     5   101   102    1
     6   103   102   ar
     7   103   105   ar
     8   102   104   ar
     9   105   106   ar
    10    89    88    1
    11    89    90    2
    12    15    14    2
    13    14    13    1
    14   104   106   ar
    15    88    87    1
    16    88    91    1
    17    16    17    1
    18    16    13    1
    19    18    17   ar
    20    83    82    2
    21    17    19   ar
    22    13    12    1
    23     1     2    1
    24    91    92    1
    25    92    94   ar
    26    92    93   ar
    27    82    81    1
    28    94    96   ar
    29    12     3   am
    30    96    95   ar
    31    93    95   ar
    32     3     4    2
    33     3     2    1
    34    80    81    1
    35    81    84    1
    36     2     5    1
    37    75    74    1
    38    75    76    2
    39    74    77    1
    40    74    73    1
    41    72    70   am
    42     5     6    1
    43    77    78    1
    44    84    86    1
    45    84    85    1
    46    73    79    1
    47    11     9    1
    48     9     8    2
    49     9    10    1
    50    70    71    2
    51    70    69    1
    52     8     7    1
    53     7     6    1
    54    78    79    1
    55    69    66    1
    56    66    67    1
    57    66    65    1
    58    67    68    2
    59    36    34   ar
    60    36    37   ar
    61    34    33   ar
    62    55    54    1
    63    64    62   ar
    64    37    35   ar
    65    27    25    1
    66    61    62    1
    67    61    60    1
    68    62    63   ar
    69    54    51    1
    70    58    57    1
    71    58    59    2
    72    33    35   ar
    73    33    32    1
    74    24    25    1
    75    24    21    1
    76    26    25    1
    77    57    60    1
    78    57    56    1
    79    32    29    1
    80    20    21    1
    81    51    52    1
    82    51    50    1
    83    21    22    1
    84    52    53    2
    85    29    28    1
    86    29    30    1
    87    49    48    1
    88    46    48   ar
    89    46    44   ar
    90    48    47   ar
    91    44    43   ar
    92    47    45   ar
    93    43    45   ar
    94    43    42    1
    95    22    23    2
    96    42    39    1
    97    31    30    2
    98    39    38    1
    99    39    40    1
   100    40    41    2
