@<TRIPOS>MOLECULE
tmp/1sreA00.pdb
 140 133 0 0 0
SMALL
GASTEIGER

@<TRIPOS>ATOM
      1  N         42.5690   12.2940   -0.4400 N.3     9  ASN9       -0.1240
      2  CA        42.1890   10.8890   -0.6750 C.3     9  ASN9        0.1653
      3  C         43.0080   10.4040   -1.8830 C.2     9  ASN9        0.2266
      4  O         43.7380   11.1780   -2.5100 O.2     9  ASN9       -0.2867
      5  CB        40.6840   10.6820   -0.7870 C.3     9  ASN9        0.1155
      6  CG        40.1000   11.2260   -2.0840 C.2     9  ASN9        0.2627
      7  OD1       40.8730   11.6120   -2.9780 O.2     9  ASN9       -0.2716
      8  ND2       38.7740   11.2430   -2.1780 N.am    9  ASN9       -0.0877
      9  N         42.1570    9.7280   -4.7900 N.3    11  LEU11      -0.1245
     10  CA        41.8360   10.3400   -6.0930 C.3    11  LEU11       0.1561
     11  C         42.5460   11.6820   -6.3080 C.2    11  LEU11       0.2260
     12  O         42.5190   12.1870   -7.4810 O.2    11  LEU11      -0.2867
     13  CB        40.3070   10.5920   -6.1450 C.3    11  LEU11       0.0270
     14  CG        39.3800    9.4040   -6.1720 C.3    11  LEU11       0.0019
     15  CD1       37.9330    9.8180   -6.4320 C.3    11  LEU11       0.0001
     16  CD2       39.8310    8.4570   -7.2800 C.3    11  LEU11       0.0001
     17  N         41.6390   14.3580   -4.3180 N.3    13  SER13      -0.1217
     18  CA        40.7110   15.4030   -3.8150 C.3    13  SER13       0.1889
     19  C         41.2340   15.9540   -2.4680 C.2    13  SER13       0.2288
     20  O         41.9490   15.2300   -1.7410 O.2    13  SER13      -0.2866
     21  CB        39.3080   14.8130   -3.5830 C.3    13  SER13       0.2089
     22  OG        38.7670   14.3480   -4.8190 O.3    13  SER13      -0.2183
     23  N         35.3100   21.3300    0.1500 N.3    29  TYR29      -0.1241
     24  CA        35.7840   20.1170   -0.5380 C.3    29  TYR29       0.1605
     25  C         36.1440   20.4840   -1.9920 C.2    29  TYR29       0.2264
     26  O         35.3980   21.2380   -2.6400 O.2    29  TYR29      -0.2867
     27  CB        34.7250   19.0180   -0.5210 C.3    29  TYR29       0.0534
     28  CG        35.2070   17.6170   -0.7840 C.ar   29  TYR29      -0.0201
     29  CD1       35.3830   17.0920   -2.0710 C.ar   29  TYR29      -0.0009
     30  CD2       35.4620   16.7840    0.3080 C.ar   29  TYR29      -0.0009
     31  CE1       35.8530   15.8040   -2.2700 C.ar   29  TYR29       0.0417
     32  CE2       35.9240   15.4840    0.1330 C.ar   29  TYR29       0.0417
     33  CZ        36.1250   14.9930   -1.1530 C.ar   29  TYR29       0.1957
     34  OH        36.5690   13.7180   -1.2540 O.3    29  TYR29      -0.2866
     35  N         37.1720   18.4900   -5.4510 N.3    31  SER31      -0.1217
     36  CA        37.1550   17.2110   -6.1440 C.3    31  SER31       0.1889
     37  C         37.9750   17.1260   -7.4140 C.2    31  SER31       0.2288
     38  O         37.9840   18.0430   -8.2610 O.2    31  SER31      -0.2866
     39  CB        35.6860   16.8610   -6.4620 C.3    31  SER31       0.2089
     40  OG        35.5670   15.5880   -7.0680 O.3    31  SER31      -0.2183
     41  N         37.5590   14.3930   -9.4570 N.3    33  VAL33      -0.1231
     42  CA        36.7330   13.6330  -10.4090 C.3    33  VAL33       0.1692
     43  C         35.3310   14.2580  -10.5900 C.2    33  VAL33       0.2593
     44  O         34.8900   15.1900   -9.8810 O.2    33  VAL33      -0.2718
     45  CB        36.4660   12.2270   -9.7180 C.3    33  VAL33       0.0266
     46  CG1       37.7250   11.5860   -9.2120 C.3    33  VAL33       0.0020
     47  CG2       35.4470   12.4270   -8.5910 C.3    33  VAL33       0.0020
     48  N         34.6540   13.6980  -11.6280 N.am   34  GLY34      -0.1942
     49  CA        33.3020   14.0890  -11.9780 C.3    34  GLY34       0.2014
     50  C         33.1640   15.4600  -12.5880 C.2    34  GLY34       0.2639
     51  O         34.1000   16.1160  -13.0710 O.2    34  GLY34      -0.2714
     52  N         31.8820   15.8430  -12.6110 N.am   35  ASN35      -0.1958
     53  CA        31.5200   17.1490  -13.1750 C.3    35  ASN35       0.1819
     54  C         31.7010   18.1760  -12.0720 C.2    35  ASN35       0.2621
     55  O         30.6130   18.6070  -11.5760 O.2    35  ASN35      -0.2715
     56  CB        30.1200   17.0980  -13.8200 C.3    35  ASN35       0.1195
     57  CG        29.7690   18.4640  -14.3970 C.2    35  ASN35       0.2630
     58  OD1       28.7390   19.0640  -14.0560 O.2    35  ASN35      -0.2716
     59  ND2       30.6840   18.9620  -15.2360 N.am   35  ASN35      -0.0877
     60  N         32.9070   18.5260  -11.6650 N.am   36  ALA36      -0.1977
     61  CA        33.1140   19.5320  -10.6070 C.3    36  ALA36       0.1597
     62  C         34.2510   20.5330  -10.8650 C.2    36  ALA36       0.2287
     63  O         35.2860   20.1620  -11.4690 O.2    36  ALA36      -0.2864
     64  CB        33.4730   18.8720   -9.2550 C.3    36  ALA36       0.0319
     65  N         26.9700   18.9880   -4.9390 N.3    62  TRP62      -0.1241
     66  CA        27.8370   19.4070   -6.0220 C.3    62  TRP62       0.1605
     67  C         27.3350   20.6170   -6.8000 C.2    62  TRP62       0.2264
     68  O         27.2100   20.5890   -8.0560 O.2    62  TRP62      -0.2867
     69  CB        28.1940   18.2100   -6.9270 C.3    62  TRP62       0.0550
     70  CG        28.8260   17.0820   -6.1430 C.ar   62  TRP62       0.0003
     71  CD1       28.2860   15.8720   -5.8270 C.ar   62  TRP62       0.0946
     72  CD2       30.1520   17.0850   -5.6000 C.ar   62  TRP62       0.0152
     73  NE1       29.1880   15.1260   -5.0820 N.ar   62  TRP62      -0.2442
     74  CE2       30.3390   15.8400   -4.9430 C.ar   62  TRP62       0.0810
     75  CE3       31.1760   18.0360   -5.5650 C.ar   62  TRP62       0.0012
     76  CZ2       31.5230   15.5040   -4.3130 C.ar   62  TRP62       0.0191
     77  CZ3       32.3470   17.7050   -4.9340 C.ar   62  TRP62       0.0001
     78  CH2       32.5140   16.4760   -4.2850 C.ar   62  TRP62       0.0015
     79  N         26.0230   19.8910  -10.7100 N.3    69  ALA69      -0.1245
     80  CA        25.9400   18.5240  -11.2610 C.3    69  ALA69       0.1562
     81  C         24.6280   17.8410  -10.8660 C.2    69  ALA69       0.2260
     82  O         24.4580   16.6740  -11.3130 O.2    69  ALA69      -0.2867
     83  CB        27.1400   17.7060  -10.8170 C.3    69  ALA69       0.0290
     84  N         23.6220   16.6350   -8.0030 N.3    71  SER71      -0.1217
     85  CA        23.9370   15.3860   -7.2430 C.3    71  SER71       0.1889
     86  C         24.5270   15.7400   -5.8710 C.2    71  SER71       0.2288
     87  O         24.8820   16.8960   -5.6780 O.2    71  SER71      -0.2866
     88  CB        24.9770   14.5990   -8.0390 C.3    71  SER71       0.2089
     89  OG        26.2010   15.3020   -8.1200 O.3    71  SER71      -0.2183
     90  N         26.9220   13.7940   -2.4500 N.3    73  THR73      -0.1218
     91  CA        27.6550   12.6700   -1.8750 C.3    73  THR73       0.1862
     92  C         27.6190   12.8000   -0.3400 C.2    73  THR73       0.2287
     93  O         27.7790   13.9120    0.2230 O.2    73  THR73      -0.2866
     94  CB        29.1620   12.5770   -2.3170 C.3    73  THR73       0.1770
     95  OG1       29.2100   12.4960   -3.7950 O.3    73  THR73      -0.2211
     96  CG2       29.8510   11.2530   -1.8090 C.3    73  THR73       0.0375
     97  N         29.5540   10.9010    2.9790 N.3    75  TRP75      -0.1241
     98  CA        30.6500   10.0380    3.4650 C.3    75  TRP75       0.1605
     99  C         30.3630    9.6490    4.9390 C.2    75  TRP75       0.2264
    100  O         30.1760   10.5630    5.7600 O.2    75  TRP75      -0.2867
    101  CB        31.9830   10.7540    3.4230 C.3    75  TRP75       0.0550
    102  CG        32.6010   11.0540    2.0950 C.ar   75  TRP75       0.0003
    103  CD1       33.6240   10.3550    1.4930 C.ar   75  TRP75       0.0946
    104  CD2       32.3200   12.1760    1.2530 C.ar   75  TRP75       0.0152
    105  NE1       33.9490   10.9760    0.2800 N.ar   75  TRP75      -0.2442
    106  CE2       33.1650   12.0690    0.1250 C.ar   75  TRP75       0.0810
    107  CE3       31.3940   13.2060    1.3260 C.ar   75  TRP75       0.0012
    108  CZ2       33.1560   13.0180   -0.8850 C.ar   75  TRP75       0.0191
    109  CZ3       31.3810   14.1540    0.3090 C.ar   75  TRP75       0.0001
    110  CH2       32.2440   14.0520   -0.7840 C.ar   75  TRP75       0.0015
    111  N         31.0310    5.7600    0.8190 N.3    91  TRP91      -0.1241
    112  CA        30.1970    6.9130    0.4140 C.3    91  TRP91       0.1605
    113  C         29.0660    6.4640   -0.4980 C.2    91  TRP91       0.2264
    114  O         29.1240    5.3790   -1.0510 O.2    91  TRP91      -0.2867
    115  CB        31.0490    7.9830   -0.2960 C.3    91  TRP91       0.0550
    116  CG        31.9520    7.5220   -1.3710 C.ar   91  TRP91       0.0003
    117  CD1       33.2940    7.3140   -1.2690 C.ar   91  TRP91       0.0946
    118  CD2       31.6290    7.2800   -2.7680 C.ar   91  TRP91       0.0152
    119  NE1       33.8420    6.9550   -2.4810 N.ar   91  TRP91      -0.2442
    120  CE2       32.8250    6.9300   -3.4170 C.ar   91  TRP91       0.0810
    121  CE3       30.4420    7.3500   -3.4840 C.ar   91  TRP91       0.0012
    122  CZ2       32.8720    6.6040   -4.7610 C.ar   91  TRP91       0.0191
    123  CZ3       30.4760    7.0640   -4.8530 C.ar   91  TRP91       0.0001
    124  CH2       31.6600    6.6610   -5.4570 C.ar   91  TRP91       0.0015
    125  N         26.7300    8.3510   -3.5710 N.3    93  LEU93      -0.1245
    126  CA        26.5860    9.5560   -4.4270 C.3    93  LEU93       0.1561
    127  C         25.2250    9.4130   -5.1340 C.2    93  LEU93       0.2260
    128  O         25.1250    8.4480   -5.8880 O.2    93  LEU93      -0.2867
    129  CB        27.7230    9.6440   -5.4370 C.3    93  LEU93       0.0270
    130  CG        27.4840   10.5750   -6.6470 C.3    93  LEU93       0.0019
    131  CD1       27.3420   12.0250   -6.3020 C.3    93  LEU93       0.0001
    132  CD2       28.7290   10.4210   -7.5570 C.3    93  LEU93       0.0001
    133  N         36.6110    5.5680    0.2710 N.3   111  ASP111     -0.1239
    134  CA        37.7380    6.4760    0.1860 C.3   111  ASP111      0.1674
    135  C         38.4780    6.4810    1.5790 C.2   111  ASP111      0.2266
    136  O         37.8170    6.4190    2.6100 O.2   111  ASP111     -0.2867
    137  CB        37.3120    7.9580    0.0220 C.3   111  ASP111      0.1410
    138  CG        36.7610    8.4210   -1.2720 C.2   111  ASP111      0.3668
    139  OD1       36.8960    7.7590   -2.3150 O.co2 111  ASP111     -0.2456
    140  OD2       36.1530    9.5490   -1.2530 O.co2 111  ASP111     -0.2456
@<TRIPOS>BOND
     1    59    57   am
     2    57    58    2
     3    57    56    1
     4    56    53    1
     5    53    52    1
     6    53    54    1
     7    51    50    2
     8    52    50   am
     9    50    49    1
    10    54    60   am
    11    54    55    2
    12    49    48    1
    13    60    61    1
    14    48    43   am
    15    63    62    2
    16    82    81    2
    17    80    81    1
    18    80    83    1
    19    80    79    1
    20    62    61    1
    21    61    64    1
    22    43    42    1
    23    43    44    2
    24    42    45    1
    25    42    41    1
    26    45    46    1
    27    45    47    1
    28    38    37    2
    29    89    88    1
    30    68    67    2
    31    88    85    1
    32    84    85    1
    33   132   130    1
    34    12    11    2
    35    37    36    1
    36    16    14    1
    37    85    86    1
    38    40    39    1
    39    69    70    1
    40    69    66    1
    41    67    66    1
    42   130   131    1
    43   130   129    1
    44    39    36    1
    45    15    14    1
    46    11    10    1
    47    14    13    1
    48    13    10    1
    49    36    35    1
    50    70    71   ar
    51    70    72   ar
    52    10     9    1
    53    66    65    1
    54   128   127    2
    55    86    87    2
    56    71    73   ar
    57    72    75   ar
    58    72    74   ar
    59    75    77   ar
    60   124   123   ar
    61   124   122   ar
    62   129   126    1
    63   127   126    1
    64    73    74   ar
    65    74    76   ar
    66    77    78   ar
    67   123   121   ar
    68    22    21    1
    69   122   120   ar
    70   126   125    1
    71    17    18    1
    72    76    78   ar
    73    18    21    1
    74    18    19    1
    75    95    94    1
    76   121   118   ar
    77   120   118   ar
    78   120   119   ar
    79     7     6    2
    80   118   116   ar
    81    26    25    2
    82     4     3    2
    83   119   117   ar
    84    19    20    2
    85    90    91    1
    86    94    91    1
    87    94    96    1
    88   139   138   ar
    89    31    29   ar
    90    31    33   ar
    91     8     6   am
    92     6     5    1
    93    29    28   ar
    94    25    24    1
    95     3     2    1
    96    91    92    1
    97   116   117   ar
    98   116   115    1
    99   138   140   ar
   100   138   137    1
   101    34    33    1
   102    33    32   ar
   103   114   113    2
   104   108   110   ar
   105   108   106   ar
   106     5     2    1
   107   110   109   ar
   108    28    27    1
   109    28    30   ar
   110     2     1    1
   111    24    27    1
   112    24    23    1
   113   113   112    1
   114    92    93    2
   115   115   112    1
   116   137   134    1
   117   106   105   ar
   118   106   104   ar
   119    32    30   ar
   120   134   133    1
   121   134   135    1
   122   105   103   ar
   123   109   107   ar
   124   112   111    1
   125   104   107   ar
   126   104   102   ar
   127   103   102   ar
   128   135   136    2
   129   102   101    1
   130    97    98    1
   131   101    98    1
   132    98    99    1
   133    99   100    2
