@<TRIPOS>MOLECULE
tmp/1srfA00.pdb
 157 151 0 0 0
SMALL
GASTEIGER

@<TRIPOS>ATOM
      1  N         41.9570   12.1350   -0.4560 N.3     9  ASN9       -0.1240
      2  CA        41.5360   10.7370   -0.6760 C.3     9  ASN9        0.1653
      3  C         42.4130   10.2130   -1.8120 C.2     9  ASN9        0.2266
      4  O         43.1950   10.9750   -2.4040 O.2     9  ASN9       -0.2867
      5  CB        40.0430   10.6100   -0.8760 C.3     9  ASN9        0.1155
      6  CG        39.4960   11.1530   -2.1740 C.2     9  ASN9        0.2627
      7  OD1       40.2450   11.6470   -3.0240 O.2     9  ASN9       -0.2716
      8  ND2       38.1850   11.0610   -2.3360 N.am    9  ASN9       -0.0877
      9  N         41.7250    9.5990   -4.7480 N.3    11  LEU11      -0.1245
     10  CA        41.4990   10.2540   -6.0490 C.3    11  LEU11       0.1561
     11  C         42.2170   11.5930   -6.1710 C.2    11  LEU11       0.2260
     12  O         42.2250   12.1810   -7.2710 O.2    11  LEU11      -0.2867
     13  CB        39.9780   10.4610   -6.2200 C.3    11  LEU11       0.0270
     14  CG        39.1350    9.1960   -6.3430 C.3    11  LEU11       0.0019
     15  CD1       37.6580    9.5270   -6.3350 C.3    11  LEU11       0.0001
     16  CD2       39.5350    8.4800   -7.6150 C.3    11  LEU11       0.0001
     17  N         41.2360   14.2340   -4.2940 N.3    13  SER13      -0.1217
     18  CA        40.2580   15.2590   -3.8940 C.3    13  SER13       0.1889
     19  C         40.7290   15.8200   -2.5390 C.2    13  SER13       0.2288
     20  O         41.4000   15.0960   -1.7710 O.2    13  SER13      -0.2866
     21  CB        38.8400   14.6880   -3.7720 C.3    13  SER13       0.2089
     22  OG        38.4050   14.1080   -4.9840 O.3    13  SER13      -0.2183
     23  N         34.9620   20.9210    0.1120 N.3    29  TYR29      -0.1241
     24  CA        35.4750   19.7580   -0.5940 C.3    29  TYR29       0.1605
     25  C         35.8790   20.2170   -2.0070 C.2    29  TYR29       0.2264
     26  O         35.0890   20.8570   -2.7130 O.2    29  TYR29      -0.2867
     27  CB        34.4250   18.6640   -0.6740 C.3    29  TYR29       0.0534
     28  CG        34.9230   17.2960   -1.0060 C.ar   29  TYR29      -0.0201
     29  CD1       35.0950   16.8710   -2.3290 C.ar   29  TYR29      -0.0009
     30  CD2       35.2270   16.4010    0.0290 C.ar   29  TYR29      -0.0009
     31  CE1       35.5720   15.5930   -2.6000 C.ar   29  TYR29       0.0417
     32  CE2       35.6880   15.1190   -0.2430 C.ar   29  TYR29       0.0417
     33  CZ        35.8620   14.7310   -1.5600 C.ar   29  TYR29       0.1957
     34  OH        36.3020   13.4560   -1.7850 O.3    29  TYR29      -0.2866
     35  N         37.0680   18.5000   -5.2850 N.3    31  SER31      -0.1202
     36  CA        37.0950   17.2450   -6.0010 C.3    31  SER31       0.2020
     37  C         38.0160   17.2020   -7.2030 C.2    31  SER31       0.2619
     38  O         38.2590   18.1500   -7.9650 O.2    31  SER31      -0.2717
     39  CB        35.7160   16.7190   -6.3170 C.3    31  SER31       0.2103
     40  OG        35.7650   15.6570   -7.2440 O.3    31  SER31      -0.2182
     41  N         38.5580   15.9930   -7.3430 N.am   32  ALA32      -0.1965
     42  CA        39.4420   15.5940   -8.4240 C.3    32  ALA32       0.1728
     43  C         38.6470   14.9540   -9.5620 C.2    32  ALA32       0.2616
     44  O         39.1150   15.0090  -10.7150 O.2    32  ALA32      -0.2715
     45  CB        40.5150   14.6770   -7.8670 C.3    32  ALA32       0.0334
     46  N         37.4510   14.4430   -9.2700 N.am   33  VAL33      -0.1963
     47  CA        36.6440   13.7160  -10.2450 C.3    33  VAL33       0.1727
     48  C         35.1870   14.1050  -10.3700 C.2    33  VAL33       0.2617
     49  O         34.5670   14.7290   -9.5050 O.2    33  VAL33      -0.2715
     50  CB        36.7240   12.1880   -9.9260 C.3    33  VAL33       0.0290
     51  CG1       38.1230   11.6340  -10.1860 C.3    33  VAL33       0.0023
     52  CG2       36.2550   11.8940   -8.5210 C.3    33  VAL33       0.0023
     53  N         34.6110   13.6460  -11.4780 N.am   34  GLY34      -0.1940
     54  CA        33.2190   13.8400  -11.8610 C.3    34  GLY34       0.2014
     55  C         33.0610   15.0200  -12.8240 C.2    34  GLY34       0.2639
     56  O         33.8220   15.2040  -13.7850 O.2    34  GLY34      -0.2714
     57  N         32.0100   15.7650  -12.5540 N.am   35  ASN35      -0.1958
     58  CA        31.6480   17.0180  -13.2570 C.3    35  ASN35       0.1819
     59  C         31.5850   18.0830  -12.1190 C.2    35  ASN35       0.2621
     60  O         30.4770   18.3630  -11.6400 O.2    35  ASN35      -0.2715
     61  CB        30.2480   16.8800  -13.8970 C.3    35  ASN35       0.1195
     62  CG        29.6990   18.2550  -14.2740 C.2    35  ASN35       0.2630
     63  OD1       28.6300   18.6610  -13.7820 O.2    35  ASN35      -0.2716
     64  ND2       30.4390   18.9850  -15.1200 N.am   35  ASN35      -0.0877
     65  N         32.7540   18.4970  -11.6840 N.am   36  ALA36      -0.1977
     66  CA        32.9510   19.4290  -10.6140 C.3    36  ALA36       0.1597
     67  C         34.0860   20.4270  -10.9800 C.2    36  ALA36       0.2287
     68  O         35.0820   19.9800  -11.5310 O.2    36  ALA36      -0.2864
     69  CB        33.6500   18.8840   -9.3390 C.3    36  ALA36       0.0319
     70  N         33.1790   23.0380   -2.9660 N.3    40  TYR40      -0.1241
     71  CA        31.7700   22.7920   -2.6210 C.3    40  TYR40       0.1605
     72  C         31.7170   22.7630   -1.0940 C.2    40  TYR40       0.2264
     73  O         32.6730   22.2960   -0.4480 O.2    40  TYR40      -0.2867
     74  CB        31.3130   21.4800   -3.2480 C.3    40  TYR40       0.0534
     75  CG        31.3670   21.4120   -4.7580 C.ar   40  TYR40      -0.0201
     76  CD1       32.5230   21.0630   -5.4520 C.ar   40  TYR40      -0.0009
     77  CD2       30.2280   21.7040   -5.4980 C.ar   40  TYR40      -0.0009
     78  CE1       32.5370   21.0050   -6.8420 C.ar   40  TYR40       0.0417
     79  CE2       30.2110   21.6530   -6.8870 C.ar   40  TYR40       0.0417
     80  CZ        31.3870   21.3030   -7.5520 C.ar   40  TYR40       0.1957
     81  OH        31.3210   21.2560   -8.9180 O.3    40  TYR40      -0.2866
     82  N         26.7010   18.6110   -4.8860 N.3    62  TRP62      -0.1241
     83  CA        27.5960   18.9880   -5.9820 C.3    62  TRP62       0.1605
     84  C         27.0430   20.1570   -6.7940 C.2    62  TRP62       0.2264
     85  O         26.7840   20.1070   -7.9980 O.2    62  TRP62      -0.2867
     86  CB        27.9830   17.7940   -6.8370 C.3    62  TRP62       0.0550
     87  CG        28.6900   16.7230   -6.0860 C.ar   62  TRP62       0.0003
     88  CD1       28.2030   15.4870   -5.7590 C.ar   62  TRP62       0.0946
     89  CD2       30.0110   16.7870   -5.5580 C.ar   62  TRP62       0.0152
     90  NE1       29.1590   14.7600   -5.0680 N.ar   62  TRP62      -0.2442
     91  CE2       30.2750   15.5460   -4.9290 C.ar   62  TRP62       0.0810
     92  CE3       30.9960   17.7790   -5.5520 C.ar   62  TRP62       0.0012
     93  CZ2       31.4760   15.2800   -4.2980 C.ar   62  TRP62       0.0191
     94  CZ3       32.2180   17.4890   -4.9780 C.ar   62  TRP62       0.0001
     95  CH2       32.4360   16.2660   -4.3350 C.ar   62  TRP62       0.0015
     96  N         25.7440   19.3850  -10.6600 N.3    69  ALA69      -0.1245
     97  CA        25.6690   18.0160  -11.1350 C.3    69  ALA69       0.1562
     98  C         24.3550   17.3740  -10.6650 C.2    69  ALA69       0.2260
     99  O         24.1390   16.1820  -10.9410 O.2    69  ALA69      -0.2867
    100  CB        26.8910   17.2240  -10.6690 C.3    69  ALA69       0.0290
    101  N         23.3710   16.2870   -7.8580 N.3    71  SER71      -0.1217
    102  CA        23.7330   15.0250   -7.1470 C.3    71  SER71       0.1889
    103  C         24.3520   15.4130   -5.8190 C.2    71  SER71       0.2288
    104  O         24.7530   16.5940   -5.6680 O.2    71  SER71      -0.2866
    105  CB        24.6690   14.2300   -8.0370 C.3    71  SER71       0.2089
    106  OG        25.9370   14.8010   -8.0610 O.3    71  SER71      -0.2183
    107  N         26.6750   13.5660   -2.4360 N.3    73  THR73      -0.1218
    108  CA        27.4000   12.4010   -1.9010 C.3    73  THR73       0.1862
    109  C         27.3600   12.5040   -0.3660 C.2    73  THR73       0.2287
    110  O         27.4660   13.6150    0.1390 O.2    73  THR73      -0.2866
    111  CB        28.9130   12.3350   -2.3360 C.3    73  THR73       0.1770
    112  OG1       28.9590   12.2980   -3.7780 O.3    73  THR73      -0.2211
    113  CG2       29.6390   11.0790   -1.7590 C.3    73  THR73       0.0375
    114  N         29.3620   10.7320    2.8720 N.3    75  TRP75      -0.1241
    115  CA        30.4160    9.8380    3.3460 C.3    75  TRP75       0.1605
    116  C         30.0510    9.5260    4.8340 C.2    75  TRP75       0.2264
    117  O         29.7840   10.4510    5.6040 O.2    75  TRP75      -0.2867
    118  CB        31.8150   10.3570    3.2850 C.3    75  TRP75       0.0550
    119  CG        32.4560   10.6880    1.9970 C.ar   75  TRP75       0.0003
    120  CD1       33.4890   10.0120    1.3820 C.ar   75  TRP75       0.0946
    121  CD2       32.1850   11.8190    1.1690 C.ar   75  TRP75       0.0152
    122  NE1       33.8450   10.6540    0.2290 N.ar   75  TRP75      -0.2442
    123  CE2       33.0690   11.7600    0.0690 C.ar   75  TRP75       0.0810
    124  CE3       31.2450   12.8540    1.2420 C.ar   75  TRP75       0.0012
    125  CZ2       33.0420   12.7040   -0.9490 C.ar   75  TRP75       0.0191
    126  CZ3       31.2290   13.7910    0.2330 C.ar   75  TRP75       0.0001
    127  CH2       32.1190   13.7130   -0.8500 C.ar   75  TRP75       0.0015
    128  N         30.5950    5.6160    0.9450 N.3    91  TRP91      -0.1241
    129  CA        29.8400    6.7700    0.4490 C.3    91  TRP91       0.1605
    130  C         28.6990    6.3170   -0.4380 C.2    91  TRP91       0.2264
    131  O         28.7520    5.2750   -1.0770 O.2    91  TRP91      -0.2867
    132  CB        30.7170    7.7830   -0.2390 C.3    91  TRP91       0.0550
    133  CG        31.6590    7.3720   -1.2940 C.ar   91  TRP91       0.0003
    134  CD1       33.0190    7.2660   -1.1880 C.ar   91  TRP91       0.0946
    135  CD2       31.3620    7.0800   -2.6820 C.ar   91  TRP91       0.0152
    136  NE1       33.5700    6.9190   -2.4070 N.ar   91  TRP91      -0.2442
    137  CE2       32.5620    6.8050   -3.3240 C.ar   91  TRP91       0.0810
    138  CE3       30.1520    7.0750   -3.4000 C.ar   91  TRP91       0.0012
    139  CZ2       32.6330    6.4740   -4.6870 C.ar   91  TRP91       0.0191
    140  CZ3       30.2230    6.7550   -4.7490 C.ar   91  TRP91       0.0001
    141  CH2       31.4330    6.4370   -5.3710 C.ar   91  TRP91       0.0015
    142  N         26.4950    8.2180   -3.5020 N.3    93  LEU93      -0.1245
    143  CA        26.3550    9.3810   -4.4100 C.3    93  LEU93       0.1561
    144  C         24.9820    9.2130   -5.0750 C.2    93  LEU93       0.2260
    145  O         24.8560    8.2450   -5.8360 O.2    93  LEU93      -0.2867
    146  CB        27.5330    9.3510   -5.3810 C.3    93  LEU93       0.0270
    147  CG        27.4140   10.1460   -6.7000 C.3    93  LEU93       0.0019
    148  CD1       27.1310   11.6020   -6.4640 C.3    93  LEU93       0.0001
    149  CD2       28.7410    9.9860   -7.4320 C.3    93  LEU93       0.0001
    150  N         36.1660    5.5480    0.3070 N.3   111  ASP111     -0.1239
    151  CA        37.2300    6.5380    0.2580 C.3   111  ASP111      0.1674
    152  C         38.0340    6.4640    1.5810 C.2   111  ASP111      0.2266
    153  O         37.4340    6.3530    2.6400 O.2   111  ASP111     -0.2867
    154  CB        36.7180    7.9680    0.1460 C.3   111  ASP111      0.1410
    155  CG        36.3430    8.5300   -1.1660 C.2   111  ASP111      0.3668
    156  OD1       36.5400    7.8770   -2.2000 O.co2 111  ASP111     -0.2456
    157  OD2       35.8480    9.6990   -1.1670 O.co2 111  ASP111     -0.2456
@<TRIPOS>BOND
     1    64    62   am
     2    62    61    1
     3    62    63    2
     4    61    58    1
     5    56    55    2
     6    58    57    1
     7    58    59    1
     8    55    57   am
     9    55    54    1
    10    59    65   am
    11    59    60    2
    12    54    53    1
    13    65    66    1
    14    68    67    2
    15    53    48   am
    16    97   100    1
    17    97    98    1
    18    97    96    1
    19    67    66    1
    20    99    98    2
    21    44    43    2
    22    66    69    1
    23    48    47    1
    24    48    49    2
    25    47    50    1
    26    47    46    1
    27    51    50    1
    28    50    52    1
    29    43    46   am
    30    43    42    1
    31    81    80    1
    32    42    45    1
    33    42    41    1
    34   106   105    1
    35   105   102    1
    36    85    84    2
    37    38    37    2
    38   101   102    1
    39    16    14    1
    40    80    79   ar
    41    80    78   ar
    42   149   147    1
    43    41    37   am
    44    12    11    2
    45    40    39    1
    46    37    36    1
    47   102   103    1
    48    79    77   ar
    49    78    76   ar
    50    86    87    1
    51    86    83    1
    52    84    83    1
    53   147   148    1
    54   147   146    1
    55    14    15    1
    56    14    13    1
    57    39    36    1
    58    13    10    1
    59    11    10    1
    60    87    88   ar
    61    87    89   ar
    62    10     9    1
    63    36    35    1
    64    83    82    1
    65   145   144    2
    66   103   104    2
    67    88    90   ar
    68    89    92   ar
    69    89    91   ar
    70    92    94   ar
    71    77    75   ar
    72    76    75   ar
    73   146   143    1
    74   141   140   ar
    75   141   139   ar
    76   144   143    1
    77    90    91   ar
    78    22    21    1
    79    94    95   ar
    80    91    93   ar
    81    75    74    1
    82   140   138   ar
    83   139   137   ar
    84   143   142    1
    85    95    93   ar
    86    17    18    1
    87    18    21    1
    88    18    19    1
    89   112   111    1
    90   138   135   ar
    91   137   135   ar
    92   137   136   ar
    93    74    71    1
    94     7     6    2
    95    70    71    1
    96    26    25    2
    97   135   133   ar
    98    71    72    1
    99    31    29   ar
   100    31    33   ar
   101    19    20    2
   102   107   108    1
   103   136   134   ar
   104     4     3    2
   105   111   108    1
   106   111   113    1
   107     8     6   am
   108    29    28   ar
   109   156   155   ar
   110     6     5    1
   111    25    24    1
   112   108   109    1
   113     3     2    1
   114    34    33    1
   115    33    32   ar
   116   133   134   ar
   117   133   132    1
   118   157   155   ar
   119   155   154    1
   120    72    73    2
   121   131   130    2
   122    28    27    1
   123    28    30   ar
   124   125   127   ar
   125   125   123   ar
   126     5     2    1
   127   127   126   ar
   128     2     1    1
   129    27    24    1
   130    24    23    1
   131   130   129    1
   132   109   110    2
   133    32    30   ar
   134   132   129    1
   135   123   122   ar
   136   123   121   ar
   137   154   151    1
   138   122   120   ar
   139   126   124   ar
   140   151   150    1
   141   151   152    1
   142   129   128    1
   143   121   124   ar
   144   121   119   ar
   145   120   119   ar
   146   152   153    2
   147   119   118    1
   148   114   115    1
   149   118   115    1
   150   115   116    1
   151   116   117    2
