@<TRIPOS>MOLECULE
tmp/1srhA00.pdb
 158 150 0 0 0
SMALL
GASTEIGER

@<TRIPOS>ATOM
      1  N         42.1630   12.1340   -0.4320 N.3     9  ASN9       -0.1240
      2  CA        41.7400   10.7380   -0.6610 C.3     9  ASN9        0.1653
      3  C         42.6290   10.1920   -1.7830 C.2     9  ASN9        0.2266
      4  O         43.4150   10.9350   -2.3710 O.2     9  ASN9       -0.2867
      5  CB        40.2550   10.6090   -0.8710 C.3     9  ASN9        0.1155
      6  CG        39.7520   11.0220   -2.2380 C.2     9  ASN9        0.2627
      7  OD1       40.5350   11.3810   -3.1080 O.2     9  ASN9       -0.2716
      8  ND2       38.4400   10.9540   -2.4180 N.am    9  ASN9       -0.0877
      9  N         41.9060    9.4310   -4.6320 N.3    11  LEU11      -0.1245
     10  CA        41.6200    9.9880   -5.9590 C.3    11  LEU11       0.1561
     11  C         42.3280   11.3270   -6.1750 C.2    11  LEU11       0.2260
     12  O         42.3700   11.8100   -7.3170 O.2    11  LEU11      -0.2867
     13  CB        40.1240   10.0790   -6.1810 C.3    11  LEU11       0.0270
     14  CG        39.2720    8.8260   -6.2200 C.3    11  LEU11       0.0019
     15  CD1       37.8120    9.2130   -6.4190 C.3    11  LEU11       0.0001
     16  CD2       39.7370    7.9280   -7.3620 C.3    11  LEU11       0.0001
     17  N         41.3840   14.0520   -4.2630 N.3    13  SER13      -0.1217
     18  CA        40.3970   15.0460   -3.8260 C.3    13  SER13       0.1889
     19  C         40.8830   15.6330   -2.4760 C.2    13  SER13       0.2288
     20  O         41.5930   14.9640   -1.7180 O.2    13  SER13      -0.2866
     21  CB        39.0030   14.4860   -3.6580 C.3    13  SER13       0.2089
     22  OG        38.4330   13.9800   -4.8260 O.3    13  SER13      -0.2183
     23  N         35.0650   20.9060    0.1080 N.3    29  TYR29      -0.1241
     24  CA        35.5260   19.7110   -0.5840 C.3    29  TYR29       0.1605
     25  C         35.9170   20.0730   -2.0180 C.2    29  TYR29       0.2264
     26  O         35.1850   20.7970   -2.6970 O.2    29  TYR29      -0.2867
     27  CB        34.3850   18.6660   -0.6190 C.3    29  TYR29       0.0534
     28  CG        34.8970   17.2810   -0.9250 C.ar   29  TYR29      -0.0201
     29  CD1       35.0810   16.8380   -2.2340 C.ar   29  TYR29      -0.0009
     30  CD2       35.1880   16.4140    0.1290 C.ar   29  TYR29      -0.0009
     31  CE1       35.5430   15.5430   -2.4850 C.ar   29  TYR29       0.0417
     32  CE2       35.6740   15.1310   -0.1110 C.ar   29  TYR29       0.0417
     33  CZ        35.8560   14.7110   -1.4210 C.ar   29  TYR29       0.1957
     34  OH        36.3170   13.4390   -1.6080 O.3    29  TYR29      -0.2866
     35  N         36.9250   18.1300   -5.4140 N.3    31  SER31      -0.1217
     36  CA        36.8500   16.8610   -6.1130 C.3    31  SER31       0.1889
     37  C         37.7020   16.7530   -7.3590 C.2    31  SER31       0.2288
     38  O         37.7780   17.6440   -8.2200 O.2    31  SER31      -0.2866
     39  CB        35.4210   16.4350   -6.3400 C.3    31  SER31       0.2089
     40  OG        35.2990   15.2240   -7.0520 O.3    31  SER31      -0.2183
     41  N         37.2600   14.0090   -9.3140 N.3    33  VAL33      -0.1231
     42  CA        36.4100   13.3480  -10.3140 C.3    33  VAL33       0.1692
     43  C         34.9980   13.9190  -10.3750 C.2    33  VAL33       0.2593
     44  O         34.5640   14.7310   -9.5470 O.2    33  VAL33      -0.2718
     45  CB        36.4120   11.8200  -10.0610 C.3    33  VAL33       0.0266
     46  CG1       37.8000   11.2130  -10.2590 C.3    33  VAL33       0.0020
     47  CG2       35.8790   11.4860   -8.6810 C.3    33  VAL33       0.0020
     48  N         34.2920   13.4370  -11.3930 N.am   34  GLY34      -0.1942
     49  CA        32.8890   13.8190  -11.6400 C.3    34  GLY34       0.2014
     50  C         32.8430   15.1270  -12.4270 C.2    34  GLY34       0.2639
     51  O         33.8590   15.5410  -12.9960 O.2    34  GLY34      -0.2714
     52  N         31.6430   15.7050  -12.4120 N.am   35  ASN35      -0.1958
     53  CA        31.4540   17.0080  -13.1330 C.3    35  ASN35       0.1819
     54  C         31.5520   18.0830  -12.0380 C.2    35  ASN35       0.2621
     55  O         30.5170   18.5000  -11.5100 O.2    35  ASN35      -0.2715
     56  CB        30.1120   16.9940  -13.8510 C.3    35  ASN35       0.1195
     57  CG        29.6940   18.3830  -14.3160 C.2    35  ASN35       0.2630
     58  OD1       28.6390   18.8760  -13.8840 O.2    35  ASN35      -0.2716
     59  ND2       30.5170   19.0050  -15.1630 N.am   35  ASN35      -0.0877
     60  N         32.7780   18.4240  -11.6850 N.am   36  ALA36      -0.1977
     61  CA        33.0530   19.3920  -10.6630 C.3    36  ALA36       0.1597
     62  C         34.2870   20.2650  -11.0290 C.2    36  ALA36       0.2287
     63  O         35.2280   19.8080  -11.6390 O.2    36  ALA36      -0.2864
     64  CB        33.5540   18.8700   -9.3330 C.3    36  ALA36       0.0319
     65  N         33.1890   22.9920   -2.9620 N.3    40  TYR40      -0.1241
     66  CA        31.7850   22.8070   -2.5830 C.3    40  TYR40       0.1605
     67  C         31.7420   22.7860   -1.0480 C.2    40  TYR40       0.2264
     68  O         32.6770   22.2930   -0.4040 O.2    40  TYR40      -0.2867
     69  CB        31.2680   21.4620   -3.1530 C.3    40  TYR40       0.0534
     70  CG        31.3350   21.4040   -4.6660 C.ar   40  TYR40      -0.0201
     71  CD1       32.5010   21.0530   -5.3400 C.ar   40  TYR40      -0.0009
     72  CD2       30.2050   21.7050   -5.4160 C.ar   40  TYR40      -0.0009
     73  CE1       32.5450   21.0060   -6.7310 C.ar   40  TYR40       0.0417
     74  CE2       30.2190   21.6720   -6.8130 C.ar   40  TYR40       0.0417
     75  CZ        31.3930   21.3160   -7.4590 C.ar   40  TYR40       0.1957
     76  OH        31.3750   21.2890   -8.8220 O.3    40  TYR40      -0.2866
     77  N         26.6770   18.6180   -4.9330 N.3    62  TRP62      -0.1241
     78  CA        27.5660   19.0270   -6.0260 C.3    62  TRP62       0.1605
     79  C         27.0280   20.2150   -6.8140 C.2    62  TRP62       0.2264
     80  O         26.8220   20.1600   -8.0310 O.2    62  TRP62      -0.2867
     81  CB        27.9590   17.8420   -6.9030 C.3    62  TRP62       0.0550
     82  CG        28.6290   16.7630   -6.1150 C.ar   62  TRP62       0.0003
     83  CD1       28.1070   15.5500   -5.7600 C.ar   62  TRP62       0.0946
     84  CD2       29.9360   16.8290   -5.5460 C.ar   62  TRP62       0.0152
     85  NE1       29.0230   14.8500   -5.0050 N.ar   62  TRP62      -0.2442
     86  CE2       30.1570   15.6040   -4.8720 C.ar   62  TRP62       0.0810
     87  CE3       30.9420   17.7940   -5.5560 C.ar   62  TRP62       0.0012
     88  CZ2       31.3490   15.3210   -4.2220 C.ar   62  TRP62       0.0191
     89  CZ3       32.1360   17.5120   -4.9180 C.ar   62  TRP62       0.0001
     90  CH2       32.3320   16.2960   -4.2530 C.ar   62  TRP62       0.0015
     91  N         25.8010   19.4890  -10.6720 N.3    69  ALA69      -0.1245
     92  CA        25.7880   18.0980  -11.1420 C.3    69  ALA69       0.1562
     93  C         24.4820   17.4190  -10.7520 C.2    69  ALA69       0.2260
     94  O         24.2700   16.2490  -11.0870 O.2    69  ALA69      -0.2867
     95  CB        27.0000   17.3630  -10.5950 C.3    69  ALA69       0.0290
     96  N         23.3710   16.3160   -7.8610 N.3    71  SER71      -0.1217
     97  CA        23.6930   15.0850   -7.1070 C.3    71  SER71       0.1889
     98  C         24.2580   15.4590   -5.7520 C.2    71  SER71       0.2288
     99  O         24.6050   16.6390   -5.5530 O.2    71  SER71      -0.2866
    100  CB        24.6750   14.2530   -7.9270 C.3    71  SER71       0.2089
    101  OG        25.8760   14.9790   -8.1410 O.3    71  SER71      -0.2183
    102  N         26.6890   13.5640   -2.3990 N.3    73  THR73      -0.1218
    103  CA        27.4620   12.4410   -1.8400 C.3    73  THR73       0.1862
    104  C         27.4610   12.5630   -0.3050 C.2    73  THR73       0.2287
    105  O         27.6460   13.6690    0.2070 O.2    73  THR73      -0.2866
    106  CB        28.9690   12.4480   -2.3130 C.3    73  THR73       0.1770
    107  OG1       28.9770   12.4840   -3.7590 O.3    73  THR73      -0.2211
    108  CG2       29.8060   11.2830   -1.7720 C.3    73  THR73       0.0375
    109  N         29.3720   10.7300    2.9640 N.3    75  TRP75      -0.1241
    110  CA        30.4660    9.8630    3.4170 C.3    75  TRP75       0.1605
    111  C         30.1520    9.5010    4.8910 C.2    75  TRP75       0.2264
    112  O         29.8900   10.3840    5.7080 O.2    75  TRP75      -0.2867
    113  CB        31.8490   10.4510    3.3270 C.3    75  TRP75       0.0550
    114  CG        32.4910   10.7550    2.0350 C.ar   75  TRP75       0.0003
    115  CD1       33.4970   10.0660    1.4070 C.ar   75  TRP75       0.0946
    116  CD2       32.1980   11.8630    1.1700 C.ar   75  TRP75       0.0152
    117  NE1       33.8390   10.6730    0.2110 N.ar   75  TRP75      -0.2442
    118  CE2       33.0580   11.7880    0.0630 C.ar   75  TRP75       0.0810
    119  CE3       31.2680   12.9110    1.2560 C.ar   75  TRP75       0.0012
    120  CZ2       33.0290   12.7220   -0.9570 C.ar   75  TRP75       0.0191
    121  CZ3       31.2640   13.8470    0.2550 C.ar   75  TRP75       0.0001
    122  CH2       32.1150   13.7500   -0.8470 C.ar   75  TRP75       0.0015
    123  N         30.6810    5.7240    0.9170 N.3    91  TRP91      -0.1241
    124  CA        29.8960    6.8570    0.4170 C.3    91  TRP91       0.1605
    125  C         28.7870    6.3930   -0.5140 C.2    91  TRP91       0.2264
    126  O         28.8580    5.3390   -1.1350 O.2    91  TRP91      -0.2867
    127  CB        30.7830    7.8920   -0.2320 C.3    91  TRP91       0.0550
    128  CG        31.6940    7.4750   -1.3170 C.ar   91  TRP91       0.0003
    129  CD1       33.0510    7.2940   -1.2370 C.ar   91  TRP91       0.0946
    130  CD2       31.3490    7.2110   -2.6940 C.ar   91  TRP91       0.0152
    131  NE1       33.5650    6.9600   -2.4690 N.ar   91  TRP91      -0.2442
    132  CE2       32.5390    6.8820   -3.3720 C.ar   91  TRP91       0.0810
    133  CE3       30.1460    7.2310   -3.3910 C.ar   91  TRP91       0.0012
    134  CZ2       32.5710    6.5820   -4.7270 C.ar   91  TRP91       0.0191
    135  CZ3       30.1610    6.9360   -4.7380 C.ar   91  TRP91       0.0001
    136  CH2       31.3450    6.6120   -5.3950 C.ar   91  TRP91       0.0015
    137  N         26.4770    8.2760   -3.5340 N.3    93  LEU93      -0.1245
    138  CA        26.2950    9.4300   -4.4330 C.3    93  LEU93       0.1561
    139  C         24.9590    9.2460   -5.1460 C.2    93  LEU93       0.2260
    140  O         24.8720    8.3440   -5.9930 O.2    93  LEU93      -0.2867
    141  CB        27.4980    9.5370   -5.3600 C.3    93  LEU93       0.0270
    142  CG        27.3760   10.3250   -6.6620 C.3    93  LEU93       0.0019
    143  CD1       27.0070   11.7680   -6.4570 C.3    93  LEU93       0.0001
    144  CD2       28.7310   10.2620   -7.3850 C.3    93  LEU93       0.0001
    145  N         22.0240   10.8230   -7.5930 N.3    95  SER95      -0.1217
    146  CA        21.7550   11.7890   -8.6630 C.3    95  SER95       0.1889
    147  C         20.2430   12.0140   -8.6920 C.2    95  SER95       0.2288
    148  O         19.5160   11.0370   -8.4340 O.2    95  SER95      -0.2866
    149  CB        22.2490   11.2990  -10.0130 C.3    95  SER95       0.2089
    150  OG        23.6720   11.1710   -9.9930 O.3    95  SER95      -0.2183
    151  N         36.2910    5.6090    0.2100 N.3   111  ASP111     -0.1239
    152  CA        37.3990    6.5580    0.1900 C.3   111  ASP111      0.1674
    153  C         38.1570    6.4510    1.5380 C.2   111  ASP111      0.2266
    154  O         37.5370    6.3160    2.5900 O.2   111  ASP111     -0.2867
    155  CB        36.9230    8.0140    0.0750 C.3   111  ASP111      0.1410
    156  CG        36.3950    8.4670   -1.2450 C.2   111  ASP111      0.3668
    157  OD1       36.6110    7.8220   -2.2740 O.co2 111  ASP111     -0.2456
    158  OD2       35.7350    9.5450   -1.2600 O.co2 111  ASP111     -0.2456
@<TRIPOS>BOND
     1    59    57   am
     2    57    58    2
     3    57    56    1
     4    56    53    1
     5    53    52    1
     6    53    54    1
     7    51    50    2
     8    50    52   am
     9    50    49    1
    10    54    60   am
    11    54    55    2
    12    60    61    1
    13    49    48    1
    14    63    62    2
    15    48    43   am
    16    92    93    1
    17    92    91    1
    18    92    95    1
    19    94    93    2
    20    62    61    1
    21    61    64    1
    22    43    42    1
    23    43    44    2
    24    42    45    1
    25    42    41    1
    26    46    45    1
    27    45    47    1
    28   149   150    1
    29   149   146    1
    30    76    75    1
    31   147   146    1
    32   147   148    2
    33   146   145    1
    34    38    37    2
    35   101   100    1
    36    80    79    2
    37   100    97    1
    38    96    97    1
    39    75    74   ar
    40    75    73   ar
    41   144   142    1
    42    16    14    1
    43    37    36    1
    44    12    11    2
    45    97    98    1
    46    40    39    1
    47    81    82    1
    48    81    78    1
    49    79    78    1
    50    74    72   ar
    51    73    71   ar
    52   142   143    1
    53   142   141    1
    54    15    14    1
    55    39    36    1
    56    14    13    1
    57    13    10    1
    58    11    10    1
    59    82    83   ar
    60    82    84   ar
    61    36    35    1
    62    78    77    1
    63   140   139    2
    64    10     9    1
    65    83    85   ar
    66    98    99    2
    67    87    84   ar
    68    87    89   ar
    69    84    86   ar
    70    72    70   ar
    71   136   135   ar
    72   136   134   ar
    73   141   138    1
    74    71    70   ar
    75   139   138    1
    76    85    86   ar
    77    89    90   ar
    78    86    88   ar
    79    22    21    1
    80   135   133   ar
    81   134   132   ar
    82    70    69    1
    83   138   137    1
    84    17    18    1
    85    90    88   ar
    86    18    21    1
    87    18    19    1
    88   107   106    1
    89   133   130   ar
    90   132   130   ar
    91   132   131   ar
    92    69    66    1
    93     7     6    2
    94    65    66    1
    95    26    25    2
    96   130   128   ar
    97    66    67    1
    98    31    29   ar
    99    31    33   ar
   100    19    20    2
   101   131   129   ar
   102     8     6   am
   103   102   103    1
   104     4     3    2
   105   106   103    1
   106   106   108    1
   107   157   156   ar
   108     6     5    1
   109    29    28   ar
   110    25    24    1
   111   103   104    1
   112     3     2    1
   113    34    33    1
   114    33    32   ar
   115   128   129   ar
   116   128   127    1
   117   158   156   ar
   118   156   155    1
   119   126   125    2
   120    67    68    2
   121   120   122   ar
   122   120   118   ar
   123    28    27    1
   124    28    30   ar
   125     5     2    1
   126   122   121   ar
   127     2     1    1
   128    27    24    1
   129    24    23    1
   130   125   124    1
   131   104   105    2
   132   127   124    1
   133    32    30   ar
   134   118   117   ar
   135   118   116   ar
   136   155   152    1
   137   152   151    1
   138   152   153    1
   139   117   115   ar
   140   121   119   ar
   141   124   123    1
   142   116   119   ar
   143   116   114   ar
   144   115   114   ar
   145   153   154    2
   146   114   113    1
   147   109   110    1
   148   113   110    1
   149   110   111    1
   150   111   112    2
