@<TRIPOS>MOLECULE
tmp/1srjB00.pdb
 169 160 0 0 0
SMALL
GASTEIGER

@<TRIPOS>ATOM
      1  N          9.8310    8.4580    8.8010 N.3     9  ASN9       -0.1240
      2  CA        10.2740    7.2610    8.0110 C.3     9  ASN9        0.1653
      3  C          9.3640    6.0850    8.4240 C.2     9  ASN9        0.2266
      4  O          8.4890    6.2380    9.2900 O.2     9  ASN9       -0.2867
      5  CB        11.7500    6.9710    8.1110 C.3     9  ASN9        0.1155
      6  CG        12.2270    6.4450    9.4460 C.2     9  ASN9        0.2627
      7  OD1       11.4270    6.2490   10.3560 O.2     9  ASN9       -0.2716
      8  ND2       13.5340    6.2020    9.6390 N.am    9  ASN9       -0.0877
      9  N         10.0060    3.5700   10.2500 N.3    11  LEU11      -0.1245
     10  CA        10.2380    3.1930   11.6320 C.3    11  LEU11       0.1561
     11  C          9.4440    4.1070   12.5710 C.2    11  LEU11       0.2260
     12  O          9.2800    3.7270   13.7310 O.2    11  LEU11      -0.2867
     13  CB        11.7210    3.1790   11.9500 C.3    11  LEU11       0.0270
     14  CG        12.6890    2.2730   11.2610 C.3    11  LEU11       0.0019
     15  CD1       14.1210    2.5190   11.7980 C.3    11  LEU11       0.0001
     16  CD2       12.3080    0.8140   11.6300 C.3    11  LEU11       0.0001
     17  N         10.3800    7.4010   13.0080 N.3    13  SER13      -0.1217
     18  CA        11.3100    8.4950   13.4530 C.3    13  SER13       0.1889
     19  C         10.7770    9.8040   12.8740 C.2    13  SER13       0.2288
     20  O         10.0880    9.7040   11.8350 O.2    13  SER13      -0.2866
     21  CB        12.7030    8.2000   12.8870 C.3    13  SER13       0.2089
     22  OG        13.2370    7.0750   13.5620 O.3    13  SER13      -0.2183
     23  N         16.3000   15.3780   14.5140 N.3    29  TYR29      -0.1241
     24  CA        15.8690   14.0090   14.1990 C.3    29  TYR29       0.1605
     25  C         15.5490   13.2870   15.5120 C.2    29  TYR29       0.2264
     26  O         16.4420   13.2730   16.4000 O.2    29  TYR29      -0.2867
     27  CB        17.1280   13.3020   13.5360 C.3    29  TYR29       0.0534
     28  CG        16.7020   12.0290   12.8210 C.ar   29  TYR29      -0.0201
     29  CD1       16.5990   10.8060   13.4680 C.ar   29  TYR29      -0.0009
     30  CD2       16.3280   12.1160   11.4830 C.ar   29  TYR29      -0.0009
     31  CE1       16.1890    9.6500   12.7660 C.ar   29  TYR29       0.0417
     32  CE2       15.8760   11.0020   10.7690 C.ar   29  TYR29       0.0417
     33  CZ        15.8220    9.7670   11.4290 C.ar   29  TYR29       0.1957
     34  OH        15.3760    8.6980   10.7020 O.3    29  TYR29      -0.2866
     35  N         14.5840    9.7370   16.8790 N.3    31  SER31      -0.1217
     36  CA        14.5940    8.3230   16.5490 C.3    31  SER31       0.1889
     37  C         13.5330    7.5410   17.2950 C.2    31  SER31       0.2288
     38  O         13.1660    7.8840   18.4210 O.2    31  SER31      -0.2866
     39  CB        15.9740    7.7100   16.8060 C.3    31  SER31       0.2089
     40  OG        15.8930    6.3210   16.5650 O.3    31  SER31      -0.2183
     41  N         14.0120    4.2210   17.0570 N.3    33  VAL33      -0.1231
     42  CA        14.7950    3.0130   17.1230 C.3    33  VAL33       0.1692
     43  C         16.2440    3.1270   17.5790 C.2    33  VAL33       0.2593
     44  O         16.8420    4.1310   17.9120 O.2    33  VAL33      -0.2718
     45  CB        14.8200    2.3100   15.7150 C.3    33  VAL33       0.0266
     46  CG1       13.4420    2.0650   15.1660 C.3    33  VAL33       0.0020
     47  CG2       15.7470    3.0890   14.8050 C.3    33  VAL33       0.0020
     48  N         16.7920    1.8950   17.4530 N.am   34  GLY34      -0.1942
     49  CA        18.2230    1.6700   17.9060 C.3    34  GLY34       0.2014
     50  C         17.8830    1.5700   19.4340 C.2    34  GLY34       0.2639
     51  O         17.7050    0.4830   19.9880 O.2    34  GLY34      -0.2714
     52  N         17.6330    2.7710   19.9120 N.am   35  ASN35      -0.1958
     53  CA        17.2860    2.9820   21.3290 C.3    35  ASN35       0.1819
     54  C         17.5010    4.4680   21.6350 C.2    35  ASN35       0.2621
     55  O         18.6440    4.9420   21.7840 O.2    35  ASN35      -0.2715
     56  CB        18.1680    2.0650   22.2050 C.3    35  ASN35       0.1195
     57  CG        19.5350    1.9300   21.5510 C.2    35  ASN35       0.2630
     58  OD1       20.0390    2.8850   20.9370 O.2    35  ASN35      -0.2716
     59  ND2       20.1130    0.7520   21.6360 N.am   35  ASN35      -0.0877
     60  N         16.3650    5.1360   21.6920 N.am   36  ALA36      -0.1977
     61  CA        16.3310    6.5800   21.9760 C.3    36  ALA36       0.1597
     62  C         14.9720    6.9350   22.5510 C.2    36  ALA36       0.2287
     63  O         14.2130    6.0420   23.0160 O.2    36  ALA36      -0.2864
     64  CB        16.7830    7.4000   20.8020 C.3    36  ALA36       0.0319
     65  N         18.2180   14.5940   18.2120 N.3    40  TYR40      -0.1241
     66  CA        19.6080   14.8180   17.8210 C.3    40  TYR40       0.1605
     67  C         19.6410   15.8780   16.7080 C.2    40  TYR40       0.2264
     68  O         18.6680   16.0590   15.9300 O.2    40  TYR40      -0.2867
     69  CB        20.2600   13.5050   17.3350 C.3    40  TYR40       0.0534
     70  CG        20.1860   12.3490   18.3100 C.ar   40  TYR40      -0.0201
     71  CD1       19.0170   11.5660   18.4030 C.ar   40  TYR40      -0.0009
     72  CD2       21.2650   12.0350   19.1240 C.ar   40  TYR40      -0.0009
     73  CE1       18.9230   10.5010   19.2830 C.ar   40  TYR40       0.0417
     74  CE2       21.2030   10.9670   20.0230 C.ar   40  TYR40       0.0417
     75  CZ        20.0470   10.2020   20.0790 C.ar   40  TYR40       0.1957
     76  OH        20.0090    9.1700   20.9800 O.3    40  TYR40      -0.2866
     77  N         24.9460   10.1020   16.6690 N.3    62  TRP62      -0.1241
     78  CA        24.0770    9.6490   17.7400 C.3    62  TRP62       0.1605
     79  C         24.5890    9.9320   19.1370 C.2    62  TRP62       0.2264
     80  O         24.8040    9.0110   19.9620 O.2    62  TRP62      -0.2867
     81  CB        23.7060    8.1560   17.5110 C.3    62  TRP62       0.0550
     82  CG        23.0520    7.9020   16.1920 C.ar   62  TRP62       0.0003
     83  CD1       23.6200    7.2880   15.0870 C.ar   62  TRP62       0.0946
     84  CD2       21.7270    8.2760   15.7990 C.ar   62  TRP62       0.0152
     85  NE1       22.7060    7.2410   14.0540 N.ar   62  TRP62      -0.2442
     86  CE2       21.5380    7.8150   14.4770 C.ar   62  TRP62       0.0810
     87  CE3       20.7010    8.9460   16.4550 C.ar   62  TRP62       0.0012
     88  CZ2       20.3430    8.0060   13.7970 C.ar   62  TRP62       0.0191
     89  CZ3       19.5000    9.1020   15.7890 C.ar   62  TRP62       0.0001
     90  CH2       19.3270    8.6460   14.4690 C.ar   62  TRP62       0.0015
     91  N         22.6880   10.5560   25.9860 N.3    67  ARG67      -0.1245
     92  CA        23.3420    9.2910   25.6040 C.3    67  ARG67       0.1563
     93  C         24.3410    9.5080   24.4600 C.2    67  ARG67       0.2260
     94  O         24.2450   10.5330   23.7660 O.2    67  ARG67      -0.2867
     95  CB        22.2720    8.3200   25.0520 C.3    67  ARG67       0.0307
     96  CG        22.8380    6.8810   24.8600 C.3    67  ARG67       0.0489
     97  CD        21.7040    5.9350   24.6390 C.3    67  ARG67       0.2205
     98  NE        22.1090    4.6410   24.0490 N.pl3  67  ARG67      -0.0865
     99  CZ        21.2040    3.8920   23.3860 C.cat  67  ARG67       0.5346
    100  NH1       19.9470    4.3050   23.1690 N.pl3  67  ARG67       0.1354
    101  NH2       21.4700    2.6150   23.0880 N.pl3  67  ARG67       0.1354
    102  N         25.9900    6.8640   21.5760 N.3    69  ALA69      -0.1245
    103  CA        26.0900    5.5740   20.9270 C.3    69  ALA69       0.1562
    104  C         27.3950    5.3910   20.1760 C.2    69  ALA69       0.2260
    105  O         27.6110    4.2910   19.6170 O.2    69  ALA69      -0.2867
    106  CB        24.8780    5.3120   20.0520 C.3    69  ALA69       0.0290
    107  N         28.3190    6.4830   17.2510 N.3    71  SER71      -0.1217
    108  CA        27.9600    6.1570   15.8610 C.3    71  SER71       0.1889
    109  C         27.3220    7.3480   15.1720 C.2    71  SER71       0.2288
    110  O         26.9670    8.3520   15.8070 O.2    71  SER71      -0.2866
    111  CB        27.1270    4.8800   15.7590 C.3    71  SER71       0.2089
    112  OG        25.9260    5.0070   16.4490 O.3    71  SER71      -0.2183
    113  N         25.0060    8.2340   11.2840 N.3    73  THR73      -0.1218
    114  CA        24.2790    7.7810   10.0770 C.3    73  THR73       0.1862
    115  C         24.2700    8.9530    9.0680 C.2    73  THR73       0.2287
    116  O         24.1500   10.1210    9.4830 O.2    73  THR73      -0.2866
    117  CB        22.7950    7.4210   10.4340 C.3    73  THR73       0.1770
    118  OG1       22.8290    6.3820   11.4750 O.3    73  THR73      -0.2211
    119  CG2       22.0050    6.9330    9.1760 C.3    73  THR73       0.0375
    120  N         22.4110    9.8950    5.3400 N.3    75  TRP75      -0.1241
    121  CA        21.3320    9.5850    4.4000 C.3    75  TRP75       0.1605
    122  C         21.6290   10.3230    3.0830 C.2    75  TRP75       0.2264
    123  O         21.9090   11.5450    3.1340 O.2    75  TRP75      -0.2867
    124  CB        19.9550    9.9600    4.9200 C.3    75  TRP75       0.0550
    125  CG        19.3420    9.2810    6.0670 C.ar   75  TRP75       0.0003
    126  CD1       18.3190    8.3570    6.0400 C.ar   75  TRP75       0.0946
    127  CD2       19.6370    9.4780    7.4750 C.ar   75  TRP75       0.0152
    128  NE1       17.9680    7.9910    7.3060 N.ar   75  TRP75      -0.2442
    129  CE2       18.7660    8.6550    8.1990 C.ar   75  TRP75       0.0810
    130  CE3       20.5290   10.3330    8.1350 C.ar   75  TRP75       0.0012
    131  CZ2       18.7430    8.6280    9.5870 C.ar   75  TRP75       0.0191
    132  CZ3       20.5050   10.3110    9.5260 C.ar   75  TRP75       0.0001
    133  CH2       19.6610    9.4730   10.2320 C.ar   75  TRP75       0.0015
    134  N         21.0460    4.7270    3.2770 N.3    91  TRP91      -0.1241
    135  CA        21.8470    5.2360    4.3900 C.3    91  TRP91       0.1605
    136  C         22.9820    4.2940    4.7520 C.2    91  TRP91       0.2264
    137  O         22.8950    3.0910    4.4480 O.2    91  TRP91      -0.2867
    138  CB        20.9600    5.5740    5.6140 C.3    91  TRP91       0.0550
    139  CG        20.0540    4.5090    6.1290 C.ar   91  TRP91       0.0003
    140  CD1       18.7010    4.4240    5.9380 C.ar   91  TRP91       0.0946
    141  CD2       20.4010    3.3310    6.8980 C.ar   91  TRP91       0.0152
    142  NE1       18.1900    3.3010    6.5740 N.ar   91  TRP91      -0.2442
    143  CE2       19.2310    2.6270    7.1640 C.ar   91  TRP91       0.0810
    144  CE3       21.6200    2.8600    7.4040 C.ar   91  TRP91       0.0012
    145  CZ2       19.1790    1.4580    7.9160 C.ar   91  TRP91       0.0191
    146  CZ3       21.5930    1.7000    8.1500 C.ar   91  TRP91       0.0001
    147  CH2       20.4190    0.9800    8.3740 C.ar   91  TRP91       0.0015
    148  N         25.3370    3.5720    8.2970 N.3    93  LEU93      -0.1245
    149  CA        25.4930    3.7740    9.7470 C.3    93  LEU93       0.1561
    150  C         26.8510    3.1610   10.1420 C.2    93  LEU93       0.2260
    151  O         27.0440    1.9310    9.9920 O.2    93  LEU93      -0.2867
    152  CB        24.3460    3.0720   10.4930 C.3    93  LEU93       0.0270
    153  CG        24.5090    2.7780   11.9710 C.3    93  LEU93       0.0019
    154  CD1       24.5760    4.0530   12.8120 C.3    93  LEU93       0.0001
    155  CD2       23.2650    2.0160   12.4780 C.3    93  LEU93       0.0001
    156  N         29.7540    2.6910   13.1720 N.3    95  SER95      -0.1217
    157  CA        30.0600    2.7610   14.6190 C.3    95  SER95       0.1889
    158  C         31.5810    2.9320   14.8010 C.2    95  SER95       0.2288
    159  O         32.3130    2.4390   13.9500 O.2    95  SER95      -0.2866
    160  CB        29.7370    1.4230   15.3540 C.3    95  SER95       0.2089
    161  OG        28.3290    1.2810   15.3680 O.3    95  SER95      -0.2183
    162  N         15.5430    4.1380    3.5950 N.3   111  ASP111     -0.1239
    163  CA        14.4490    4.7690    4.2940 C.3   111  ASP111      0.1674
    164  C         13.6040    5.5950    3.2980 C.2   111  ASP111      0.2266
    165  O         14.1970    6.2670    2.4400 O.2   111  ASP111     -0.2867
    166  CB        14.9220    5.7500    5.3780 C.3   111  ASP111      0.1410
    167  CG        15.2780    5.1950    6.7080 C.2   111  ASP111      0.3668
    168  OD1       15.1510    4.0070    7.0070 O.co2 111  ASP111     -0.2456
    169  OD2       15.7340    6.0260    7.5330 O.co2 111  ASP111     -0.2456
@<TRIPOS>BOND
     1   165   164    2
     2   122   123    2
     3   122   121    1
     4   134   135    1
     5   164   163    1
     6   162   163    1
     7   163   166    1
     8   135   136    1
     9   135   138    1
    10   121   124    1
    11   121   120    1
    12   137   136    2
    13   124   125    1
    14   166   167    1
    15   138   139    1
    16   140   139   ar
    17   140   142   ar
    18   126   125   ar
    19   126   128   ar
    20   125   127   ar
    21   139   141   ar
    22   142   143   ar
    23   167   168   ar
    24   167   169   ar
    25   141   143   ar
    26   141   144   ar
    27   143   145   ar
    28   128   129   ar
    29   144   146   ar
    30   127   130   ar
    31   127   129   ar
    32   145   147   ar
    33     2     5    1
    34     2     3    1
    35     2     1    1
    36     5     6    1
    37   130   132   ar
    38   146   147   ar
    39   129   131   ar
    40   148   149    1
    41     3     4    2
    42   115   116    2
    43   115   114    1
    44   119   117    1
    45     6     8   am
    46     6     7    2
    47   132   133   ar
    48   131   133   ar
    49   149   150    1
    50   149   152    1
    51   151   150    2
    52   114   117    1
    53   114   113    1
    54     9    10    1
    55   117   118    1
    56   152   153    1
    57    34    33    1
    58    32    33   ar
    59    32    30   ar
    60    14    16    1
    61    14    15    1
    62    14    13    1
    63    33    31   ar
    64    30    28   ar
    65    10    13    1
    66    10    11    1
    67    20    19    2
    68   153   155    1
    69   153   154    1
    70    11    12    2
    71    31    29   ar
    72    28    29   ar
    73    28    27    1
    74    19    18    1
    75    21    18    1
    76    21    22    1
    77    17    18    1
    78   156   157    1
    79    27    24    1
    80    88    90   ar
    81    88    86   ar
    82   159   158    2
    83    85    86   ar
    84    85    83   ar
    85    24    23    1
    86    24    25    1
    87    90    89   ar
    88    86    84   ar
    89   157   158    1
    90   157   160    1
    91    47    45    1
    92    83    82   ar
    93    46    45    1
    94   109   110    2
    95   109   108    1
    96   160   161    1
    97    25    26    2
    98    45    42    1
    99   111   108    1
   100   111   112    1
   101    89    87   ar
   102    84    82   ar
   103    84    87   ar
   104   108   107    1
   105    68    67    2
   106    82    81    1
   107    36    39    1
   108    36    35    1
   109    36    37    1
   110    40    39    1
   111    77    78    1
   112    67    66    1
   113    41    42    1
   114    42    43    1
   115    37    38    2
   116    69    66    1
   117    69    70    1
   118    48    43   am
   119    48    49    1
   120    81    78    1
   121    43    44    2
   122    78    79    1
   123    66    65    1
   124    49    50    1
   125    70    71   ar
   126    70    72   ar
   127    71    73   ar
   128    72    74   ar
   129    79    80    2
   130    73    75   ar
   131    50    52   am
   132    50    51    2
   133   105   104    2
   134    52    53    1
   135    74    75   ar
   136   106   103    1
   137    75    76    1
   138   104   103    1
   139    64    61    1
   140   103   102    1
   141    58    57    2
   142    53    54    1
   143    53    56    1
   144    57    59   am
   145    57    56    1
   146    54    60   am
   147    54    55    2
   148    60    61    1
   149    61    62    1
   150    62    63    2
   151   101    99    1
   152   100    99    1
   153    99    98    2
   154    94    93    2
   155    98    97    1
   156    93    92    1
   157    97    96    1
   158    96    95    1
   159    95    92    1
   160    92    91    1
