@<TRIPOS>MOLECULE
tmp/1srqA00.pdb
 91 88 0 0 0
SMALL
GASTEIGER

@<TRIPOS>ATOM
      1  N        147.9120  187.4870   70.1950 N.3   108  HIS108     -0.1226
      2  CA       149.3340  187.4090   70.4470 C.3   108  HIS108      0.1752
      3  C        149.9170  188.7710   70.7320 C.2   108  HIS108      0.2595
      4  O        151.0210  188.8810   71.2350 O.2   108  HIS108     -0.2718
      5  CB       150.0630  186.6620   69.3260 C.3   108  HIS108      0.0759
      6  CG       150.6220  187.5420   68.2540 C.ar  108  HIS108      0.0818
      7  ND1      150.0080  187.7050   67.0290 N.ar  108  HIS108     -0.2268
      8  CD2      151.7520  188.2860   68.2070 C.ar  108  HIS108      0.1154
      9  CE1      150.7220  188.5320   66.2870 C.ar  108  HIS108      0.1986
     10  NE2      151.7810  188.9040   66.9820 N.ar  108  HIS108     -0.2212
     11  N        149.1460  189.8140   70.4640 N.am  109  VAL109     -0.1980
     12  CA       149.6370  191.1670   70.6560 C.3   109  VAL109      0.1595
     13  C        149.1020  191.8700   71.8960 C.2   109  VAL109      0.2287
     14  O        149.4270  193.0220   72.1440 O.2   109  VAL109     -0.2864
     15  CB       149.5820  192.0640   69.3420 C.3   109  VAL109      0.0276
     16  CG1      149.8320  191.2470   68.0820 C.3   109  VAL109      0.0022
     17  CG2      148.3130  192.8360   69.2380 C.3   109  VAL109      0.0022
     18  N        149.4530  191.9010   75.7220 N.3   111  SER111     -0.1217
     19  CA       150.3750  191.2940   76.6600 C.3   111  SER111      0.1889
     20  C        149.8010  191.2880   78.0590 C.2   111  SER111      0.2288
     21  O        149.1490  192.2510   78.4370 O.2   111  SER111     -0.2866
     22  CB       151.7120  192.0240   76.6680 C.3   111  SER111      0.2089
     23  OG       151.4950  193.3760   77.0250 O.3   111  SER111     -0.2183
     24  N        154.0100  192.8760   82.6010 N.3   114  PHE114     -0.1241
     25  CA       154.6740  194.1220   82.3220 C.3   114  PHE114      0.1605
     26  C        155.7550  194.2720   83.3280 C.2   114  PHE114      0.2264
     27  O        155.6040  193.8270   84.4600 O.2   114  PHE114     -0.2867
     28  CB       153.7110  195.3050   82.4190 C.3   114  PHE114      0.0534
     29  CG       152.6650  195.3200   81.3730 C.ar  114  PHE114     -0.0203
     30  CD1      152.9000  195.9070   80.1720 C.ar  114  PHE114     -0.0042
     31  CD2      151.4370  194.7360   81.6020 C.ar  114  PHE114     -0.0042
     32  CE1      151.9370  195.9100   79.2000 C.ar  114  PHE114     -0.0003
     33  CE2      150.4480  194.7270   80.6330 C.ar  114  PHE114     -0.0003
     34  CZ       150.6960  195.3150   79.4250 C.ar  114  PHE114     -0.0000
     35  N        153.8390  201.6380   76.9430 N.3   290  GLU290     -0.1231
     36  CA       154.5750  200.5190   76.3860 C.3   290  GLU290      0.1699
     37  C        154.0080  200.0900   75.0760 C.2   290  GLU290      0.2592
     38  O        154.7410  199.7450   74.1870 O.2   290  GLU290     -0.2718
     39  CB       154.6650  199.3290   77.3220 C.3   290  GLU290      0.0402
     40  CG       155.4590  198.2270   76.6630 C.3   290  GLU290      0.1161
     41  CD       155.7580  197.0380   77.5320 C.2   290  GLU290      0.3649
     42  OE1      155.8960  197.1520   78.7550 O.co2 290  GLU290     -0.2457
     43  OE2      155.8990  195.9520   76.9560 O.co2 290  GLU290     -0.2457
     44  N        152.6960  200.0990   74.9460 N.am  291  TYR291     -0.1976
     45  CA       152.0900  199.7100   73.6800 C.3   291  TYR291      0.1639
     46  C        152.4130  200.7410   72.6020 C.2   291  TYR291      0.2290
     47  O        152.4590  200.4090   71.4030 O.2   291  TYR291     -0.2864
     48  CB       150.5750  199.5560   73.8200 C.3   291  TYR291      0.0560
     49  CG       150.0970  198.2000   74.3330 C.ar  291  TYR291     -0.0198
     50  CD1      150.2040  197.0610   73.5620 C.ar  291  TYR291     -0.0009
     51  CD2      149.5230  198.0800   75.5760 C.ar  291  TYR291     -0.0009
     52  CE1      149.7690  195.8380   74.0280 C.ar  291  TYR291      0.0417
     53  CE2      149.0790  196.8950   76.0320 C.ar  291  TYR291      0.0417
     54  CZ       149.1950  195.7560   75.2660 C.ar  291  TYR291      0.1957
     55  OH       148.7330  194.5220   75.7600 O.3   291  TYR291     -0.2866
     56  N        156.1780  200.2270   71.2950 N.3   294  TYR294     -0.1241
     57  CA       156.2520  199.1660   70.2970 C.3   294  TYR294      0.1605
     58  C        156.0200  199.6200   68.8520 C.2   294  TYR294      0.2264
     59  O        156.2170  198.8500   67.9170 O.2   294  TYR294     -0.2867
     60  CB       155.3450  198.0150   70.6790 C.3   294  TYR294      0.0534
     61  CG       156.0840  197.0270   71.5590 C.ar  294  TYR294     -0.0201
     62  CD1      157.0450  196.1500   70.9920 C.ar  294  TYR294     -0.0009
     63  CD2      155.8670  196.9680   72.9440 C.ar  294  TYR294     -0.0009
     64  CE1      157.7730  195.2380   71.7850 C.ar  294  TYR294      0.0417
     65  CE2      156.5750  196.0610   73.7320 C.ar  294  TYR294      0.0417
     66  CZ       157.5370  195.1960   73.1500 C.ar  294  TYR294      0.1957
     67  OH       158.2710  194.2660   73.8920 O.3   294  TYR294     -0.2866
     68  N        160.7550  193.8610   64.4220 N.3   302  LEU302     -0.1231
     69  CA       160.6010  192.6120   65.1580 C.3   302  LEU302      0.1693
     70  C        159.1320  192.2160   65.2840 C.2   302  LEU302      0.2591
     71  O        158.8150  191.0190   65.2580 O.2   302  LEU302     -0.2718
     72  CB       161.3150  192.6640   66.5310 C.3   302  LEU302      0.0284
     73  CG       162.0000  191.3980   67.0950 C.3   302  LEU302      0.0019
     74  CD1      161.7240  191.1830   68.5910 C.3   302  LEU302      0.0001
     75  CD2      161.6430  190.1260   66.3360 C.3   302  LEU302      0.0001
     76  N        158.2280  193.1990   65.3920 N.am  303  GLU303     -0.1979
     77  CA       156.7940  192.8740   65.5150 C.3   303  GLU303      0.1602
     78  C        156.1960  192.2670   64.2470 C.2   303  GLU303      0.2287
     79  O        155.5530  191.2230   64.3120 O.2   303  GLU303     -0.2864
     80  CB       155.9950  194.0640   66.0170 C.3   303  GLU303      0.0415
     81  CG       156.1940  194.2780   67.5130 C.3   303  GLU303      0.1163
     82  CD       155.0770  193.6760   68.3660 C.2   303  GLU303      0.3649
     83  OE1      155.1540  192.4450   68.7570 O.co2 303  GLU303     -0.2457
     84  OE2      154.1080  194.4540   68.6450 O.co2 303  GLU303     -0.2457
     85  N        157.3460  188.9290   63.4320 N.3   306  THR306     -0.1218
     86  CA       156.6960  187.9580   64.3130 C.3   306  THR306      0.1862
     87  C        155.2750  187.6090   63.8990 C.2   306  THR306      0.2287
     88  O        154.8770  186.4380   63.9310 O.2   306  THR306     -0.2866
     89  CB       156.6950  188.4980   65.7540 C.3   306  THR306      0.1770
     90  OG1      158.0450  188.5870   66.2210 O.3   306  THR306     -0.2211
     91  CG2      156.0070  187.5250   66.7210 C.3   306  THR306      0.0375
@<TRIPOS>BOND
     1    85    86    1
     2    87    88    2
     3    87    86    1
     4    78    79    2
     5    78    77    1
     6    86    89    1
     7    68    69    1
     8    69    70    1
     9    69    72    1
    10    71    70    2
    11    70    76   am
    12    76    77    1
    13    77    80    1
    14    89    90    1
    15    89    91    1
    16    80    81    1
    17     9    10   ar
    18     9     7   ar
    19    75    73    1
    20    72    73    1
    21    10     8   ar
    22     7     6   ar
    23    73    74    1
    24    81    82    1
    25    59    58    2
    26    16    15    1
    27     8     6   ar
    28     6     5    1
    29    82    84   ar
    30    82    83   ar
    31    58    57    1
    32    17    15    1
    33     5     2    1
    34    15    12    1
    35     1     2    1
    36    57    60    1
    37    57    56    1
    38     2     3    1
    39    11    12    1
    40    11     3   am
    41    12    13    1
    42    60    61    1
    43     3     4    2
    44    62    61   ar
    45    62    64   ar
    46    47    46    2
    47    61    63   ar
    48    64    66   ar
    49    13    14    2
    50    46    45    1
    51    63    65   ar
    52    66    65   ar
    53    66    67    1
    54    50    52   ar
    55    50    49   ar
    56    45    48    1
    57    45    44    1
    58    48    49    1
    59    52    54   ar
    60    38    37    2
    61    49    51   ar
    62    44    37   am
    63    37    36    1
    64    54    55    1
    65    54    53   ar
    66    51    53   ar
    67    18    19    1
    68    36    35    1
    69    36    39    1
    70    19    22    1
    71    19    20    1
    72    40    39    1
    73    40    41    1
    74    22    23    1
    75    43    41   ar
    76    41    42   ar
    77    20    21    2
    78    32    34   ar
    79    32    30   ar
    80    34    33   ar
    81    30    29   ar
    82    33    31   ar
    83    29    31   ar
    84    29    28    1
    85    25    28    1
    86    25    24    1
    87    25    26    1
    88    26    27    2
