@<TRIPOS>MOLECULE
tmp/1ss9A00.pdb
 215 207 0 0 0
SMALL
GASTEIGER

@<TRIPOS>ATOM
      1  N          5.6410   33.4960   16.0780 N.3     6  ALA6       -0.1231
      2  CA         6.6310   34.5260   15.7870 C.3     6  ALA6        0.1694
      3  C          7.5170   33.9790   14.6870 C.2     6  ALA6        0.2592
      4  O          7.9870   32.8480   14.7860 O.2     6  ALA6       -0.2718
      5  CB         7.4600   34.8330   17.0150 C.3     6  ALA6        0.0304
      6  N          7.7330   34.7600   13.6330 N.am    7  ALA7       -0.1966
      7  CA         8.5890   34.2960   12.5480 C.3     7  ALA7        0.1728
      8  C          9.1050   35.3930   11.6270 C.2     7  ALA7        0.2616
      9  O          8.5840   36.5160   11.6070 O.2     7  ALA7       -0.2715
     10  CB         7.8450   33.2650   11.7190 C.3     7  ALA7        0.0334
     11  N         10.1550   35.0570   10.8810 N.am    8  ASP8       -0.1971
     12  CA        10.7030   35.9640    9.8960 C.3     8  ASP8        0.1709
     13  C         10.4860   35.3060    8.5300 C.2     8  ASP8        0.2293
     14  O          9.9880   34.1830    8.4400 O.2     8  ASP8       -0.2864
     15  CB        12.1850   36.2720   10.1440 C.3     8  ASP8        0.1436
     16  CG        12.9870   35.0640   10.5400 C.2     8  ASP8        0.3671
     17  OD1       12.6130   33.9320   10.1650 O.co2   8  ASP8       -0.2456
     18  OD2       14.0190   35.2630   11.2190 O.co2   8  ASP8       -0.2456
     19  N         12.1860   33.6190    6.4650 N.3    10  ASN10      -0.1225
     20  CA        12.7210   32.2650    6.3240 C.3    10  ASN10       0.1785
     21  C         11.7700   31.1480    6.7660 C.2    10  ASN10       0.2597
     22  O         11.7150   30.0800    6.1480 O.2    10  ASN10      -0.2718
     23  CB        14.0370   32.1700    7.1100 C.3    10  ASN10       0.1169
     24  CG        14.8500   30.9300    6.7650 C.2    10  ASN10       0.2627
     25  OD1       15.0180   30.5800    5.5880 O.2    10  ASN10      -0.2716
     26  ND2       15.3780   30.2690    7.7930 N.am   10  ASN10      -0.0877
     27  N         11.0230   31.4000    7.8340 N.am   11  TYR11      -0.1976
     28  CA        10.0970   30.4070    8.3760 C.3    11  TYR11       0.1639
     29  C          8.6420   30.5930    7.9540 C.2    11  TYR11       0.2290
     30  O          7.7560   29.9200    8.4810 O.2    11  TYR11      -0.2864
     31  CB        10.1850   30.4140    9.9100 C.3    11  TYR11       0.0560
     32  CG        11.1770   29.4270   10.4890 C.ar   11  TYR11      -0.0198
     33  CD1       12.3200   29.0510    9.7830 C.ar   11  TYR11      -0.0009
     34  CD2       10.9570   28.8560   11.7440 C.ar   11  TYR11      -0.0009
     35  CE1       13.2170   28.1270   10.3150 C.ar   11  TYR11       0.0417
     36  CE2       11.8350   27.9400   12.2830 C.ar   11  TYR11       0.0417
     37  CZ        12.9620   27.5790   11.5690 C.ar   11  TYR11       0.1957
     38  OH        13.8330   26.6810   12.1230 O.3    11  TYR11      -0.2866
     39  N         22.8420   29.5790   19.6580 N.3    76  ILE76      -0.1245
     40  CA        22.2560   28.4280   18.9770 C.3    76  ILE76       0.1561
     41  C         21.9960   28.7790   17.5080 C.2    76  ILE76       0.2260
     42  O         21.0860   29.5400   17.1830 O.2    76  ILE76      -0.2867
     43  CB        20.9540   27.9980   19.6800 C.3    76  ILE76       0.0252
     44  CG1       21.2530   27.6940   21.1530 C.3    76  ILE76       0.0019
     45  CG2       20.3690   26.7720   19.0050 C.3    76  ILE76       0.0019
     46  CD1       20.0270   27.4450   22.0010 C.3    76  ILE76       0.0001
     47  N         20.6730   27.3270   14.6450 N.3    78  HIS78      -0.1226
     48  CA        19.4040   27.2030   13.9260 C.3    78  HIS78       0.1752
     49  C         18.2990   28.1580   14.3660 C.2    78  HIS78       0.2596
     50  O         17.1960   28.1340   13.8240 O.2    78  HIS78      -0.2718
     51  CB        18.8940   25.7600   13.9820 C.3    78  HIS78       0.0759
     52  CG        18.3010   25.3670   15.3010 C.ar   78  HIS78       0.0818
     53  ND1       19.0500   25.2320   16.4510 N.ar   78  HIS78      -0.2268
     54  CD2       17.0240   25.0820   15.6500 C.ar   78  HIS78       0.1154
     55  CE1       18.2610   24.8860   17.4490 C.ar   78  HIS78       0.1986
     56  NE2       17.0270   24.7900   16.9900 N.ar   78  HIS78      -0.2212
     57  N         18.5980   29.0140   15.3350 N.am   79  ILE79      -0.1966
     58  CA        17.6160   29.9750   15.8210 C.3    79  ILE79       0.1727
     59  C         18.0250   31.3920   15.4520 C.2    79  ILE79       0.2616
     60  O         19.1920   31.7580   15.5870 O.2    79  ILE79      -0.2715
     61  CB        17.4710   29.8700   17.3440 C.3    79  ILE79       0.0290
     62  CG1       16.8620   28.5130   17.6990 C.3    79  ILE79       0.0022
     63  CG2       16.6090   31.0060   17.8690 C.3    79  ILE79       0.0023
     64  CD1       17.1520   28.0600   19.1080 C.3    79  ILE79       0.0001
     65  N         17.0690   32.1890   14.9830 N.am   80  SER80      -0.1950
     66  CA        17.3560   33.5750   14.6070 C.3    80  SER80       0.1924
     67  C         16.8810   34.5610   15.6680 C.2    80  SER80       0.2314
     68  O         16.1690   34.1990   16.6060 O.2    80  SER80      -0.2863
     69  CB        16.7070   33.9200   13.2650 C.3    80  SER80       0.2116
     70  OG        15.2980   33.8530   13.3460 O.3    80  SER80      -0.2180
     71  N         14.6290   36.4570   15.7940 N.3    82  THR82      -0.1203
     72  CA        13.1860   36.4940   15.9730 C.3    82  THR82       0.1994
     73  C         12.7250   35.7370   17.2230 C.2    82  THR82       0.2618
     74  O         11.6240   35.9640   17.7280 O.2    82  THR82      -0.2717
     75  CB        12.4700   35.9420   14.7260 C.3    82  THR82       0.1784
     76  OG1       12.7150   36.8150   13.6180 O.3    82  THR82      -0.2211
     77  CG2       10.9760   35.8650   14.9550 C.3    82  THR82       0.0376
     78  N         13.5790   34.8590   17.7390 N.am   83  THR83      -0.1952
     79  CA        13.2440   34.0770   18.9250 C.3    83  THR83       0.1897
     80  C         12.9820   34.9390   20.1870 C.2    83  THR83       0.2313
     81  O         12.3100   34.4880   21.1250 O.2    83  THR83      -0.2863
     82  CB        14.3640   33.0440   19.2210 C.3    83  THR83       0.1794
     83  OG1       13.8740   32.0490   20.1270 O.3    83  THR83      -0.2208
     84  CG2       15.6010   33.7350   19.8270 C.3    83  THR83       0.0378
     85  N          8.9500   37.2930   21.4280 N.3    86  ARG86      -0.1245
     86  CA         7.9210   36.9220   22.3850 C.3    86  ARG86       0.1563
     87  C          8.0590   37.7280   23.6880 C.2    86  ARG86       0.2260
     88  O          7.0940   37.8800   24.4430 O.2    86  ARG86      -0.2867
     89  CB         8.0010   35.4140   22.6600 C.3    86  ARG86       0.0307
     90  CG         9.2840   34.9530   23.3540 C.3    86  ARG86       0.0489
     91  CD         9.4410   33.4310   23.2900 C.3    86  ARG86       0.2205
     92  NE        10.1670   32.9920   22.0990 N.pl3  86  ARG86      -0.0865
     93  CZ        10.3680   31.7210   21.7720 C.cat  86  ARG86       0.5346
     94  NH1        9.8910   30.7580   22.5470 N.pl3  86  ARG86       0.1354
     95  NH2       11.0520   31.4150   20.6760 N.pl3  86  ARG86       0.1354
     96  N          1.1120   31.0560   23.0600 N.3   101  TYR101     -0.1241
     97  CA         2.2830   31.1590   22.1950 C.3   101  TYR101      0.1605
     98  C          2.8140   29.7820   21.7680 C.2   101  TYR101      0.2264
     99  O          3.0240   28.8890   22.6040 O.2   101  TYR101     -0.2867
    100  CB         3.4170   31.9300   22.8900 C.3   101  TYR101      0.0534
    101  CG         4.6830   31.9930   22.0500 C.ar  101  TYR101     -0.0201
    102  CD1        4.8870   33.0220   21.1240 C.ar  101  TYR101     -0.0009
    103  CD2        5.6320   30.9740   22.1150 C.ar  101  TYR101     -0.0009
    104  CE1        6.0000   33.0300   20.2740 C.ar  101  TYR101      0.0417
    105  CE2        6.7490   30.9700   21.2700 C.ar  101  TYR101      0.0417
    106  CZ         6.9230   31.9980   20.3510 C.ar  101  TYR101      0.1957
    107  OH         8.0030   31.9600   19.4920 O.3   101  TYR101     -0.2866
    108  N          5.8020   27.7490   19.1720 N.3   103  ASP103     -0.1225
    109  CA         7.0110   27.8580   18.3670 C.3   103  ASP103      0.1805
    110  C          6.6410   27.4090   16.9530 C.2   103  ASP103      0.2598
    111  O          5.7160   26.6260   16.7820 O.2   103  ASP103     -0.2718
    112  CB         8.1120   26.9640   18.9290 C.3   103  ASP103      0.1424
    113  CG         9.0820   27.7210   19.8080 C.2   103  ASP103      0.3668
    114  OD1       10.0750   27.1010   20.2410 O.co2 103  ASP103     -0.2456
    115  OD2        8.8620   28.9340   20.0630 O.co2 103  ASP103     -0.2456
    116  N          7.3420   27.9000   15.9380 N.am  104  ILE104     -0.1966
    117  CA         7.0220   27.4980   14.5710 C.3   104  ILE104      0.1727
    118  C          7.1940   25.9980   14.3620 C.2   104  ILE104      0.2616
    119  O          6.3980   25.3780   13.6530 O.2   104  ILE104     -0.2715
    120  CB         7.9000   28.2230   13.5340 C.3   104  ILE104      0.0290
    121  CG1        7.6030   29.7210   13.5530 C.3   104  ILE104      0.0022
    122  CG2        7.6070   27.6960   12.1400 C.3   104  ILE104      0.0023
    123  CD1        6.1740   30.0580   13.2500 C.3   104  ILE104      0.0001
    124  N          8.2190   25.4170   14.9840 N.am  105  ASP105     -0.1971
    125  CA         8.5050   23.9880   14.8300 C.3   105  ASP105      0.1709
    126  C          7.6240   23.0340   15.6310 C.2   105  ASP105      0.2293
    127  O          8.1020   21.9840   16.0660 O.2   105  ASP105     -0.2864
    128  CB         9.9730   23.6960   15.1710 C.3   105  ASP105      0.1436
    129  CG        10.3070   24.0000   16.6220 C.2   105  ASP105      0.3671
    130  OD1        9.4400   24.5590   17.3180 O.co2 105  ASP105     -0.2456
    131  OD2       11.4330   23.6960   17.0670 O.co2 105  ASP105     -0.2456
    132  N         10.1390   24.8340   29.0230 N.3   153  ASN153     -0.1225
    133  CA        10.4820   25.0730   27.6310 C.3   153  ASN153      0.1785
    134  C          9.6040   26.2350   27.1360 C.2   153  ASN153      0.2597
    135  O          8.4320   26.3190   27.4820 O.2   153  ASN153     -0.2718
    136  CB        10.2080   23.7970   26.8380 C.3   153  ASN153      0.1169
    137  CG        10.5630   23.9300   25.3860 C.2   153  ASN153      0.2627
    138  OD1        9.7480   24.3720   24.5710 O.2   153  ASN153     -0.2716
    139  ND2       11.7950   23.5590   25.0460 N.am  153  ASN153     -0.0877
    140  N         10.1630   27.1290   26.3280 N.am  154  ALA154     -0.1966
    141  CA         9.4010   28.2800   25.8410 C.3   154  ALA154      0.1728
    142  C          8.7290   28.0730   24.4820 C.2   154  ALA154      0.2616
    143  O          8.2940   29.0420   23.8470 O.2   154  ALA154     -0.2715
    144  CB        10.3090   29.5230   25.7940 C.3   154  ALA154      0.0334
    145  N          8.6350   26.8180   24.0430 N.am  155  GLY155     -0.1955
    146  CA         8.0230   26.5230   22.7560 C.3   155  GLY155      0.1869
    147  C          6.5050   26.5350   22.7610 C.2   155  GLY155      0.2309
    148  O          5.8760   26.6880   21.7120 O.2   155  GLY155     -0.2863
    149  N         20.4820   29.1870   26.8380 N.3   186  TYR186     -0.1227
    150  CA        19.2750   28.9130   26.0870 C.3   186  TYR186      0.1736
    151  C         18.4840   30.1460   25.6780 C.2   186  TYR186      0.2595
    152  O         17.3100   30.0660   25.3200 O.2   186  TYR186     -0.2718
    153  CB        18.4110   27.9250   26.8690 C.3   186  TYR186      0.0548
    154  CG        19.1600   26.6570   27.2190 C.ar  186  TYR186     -0.0200
    155  CD1       19.6210   26.4300   28.5160 C.ar  186  TYR186     -0.0009
    156  CD2       19.4190   25.6850   26.2460 C.ar  186  TYR186     -0.0009
    157  CE1       20.3140   25.2670   28.8420 C.ar  186  TYR186      0.0417
    158  CE2       20.1150   24.5190   26.5560 C.ar  186  TYR186      0.0417
    159  CZ        20.5550   24.3140   27.8580 C.ar  186  TYR186      0.1957
    160  OH        21.2030   23.1420   28.1880 O.3   186  TYR186     -0.2866
    161  N         19.1340   31.2950   25.7530 N.am  187  GLN187     -0.1965
    162  CA        18.5300   32.5360   25.3060 C.3   187  GLN187      0.1733
    163  C         17.1660   32.9100   25.9020 C.2   187  GLN187      0.2616
    164  O         16.9550   32.8030   27.1130 O.2   187  GLN187     -0.2715
    165  CB        18.4910   32.4740   23.7770 C.3   187  GLN187      0.0408
    166  CG        19.8760   32.0940   23.2540 C.3   187  GLN187      0.0908
    167  CD        19.9480   31.7290   21.7810 C.2   187  GLN187      0.2608
    168  OE1       21.0430   31.5600   21.2440 O.2   187  GLN187     -0.2717
    169  NE2       18.8000   31.5980   21.1230 N.am  187  GLN187     -0.0878
    170  N         16.2500   33.3710   25.0560 N.am  188  ASP188     -0.1957
    171  CA        14.9290   33.7830   25.5150 C.3   188  ASP188      0.1840
    172  C         14.3040   32.7850   26.4890 C.2   188  ASP188      0.2621
    173  O         13.4560   33.1490   27.3070 O.2   188  ASP188     -0.2715
    174  CB        14.0010   33.9670   24.3230 C.3   188  ASP188      0.1450
    175  CG        13.7230   32.6710   23.6190 C.2   188  ASP188      0.3671
    176  OD1       14.6460   32.1470   22.9640 O.co2 188  ASP188     -0.2456
    177  OD2       12.5880   32.1640   23.7390 O.co2 188  ASP188     -0.2456
    178  N         14.7130   31.5230   26.3810 N.am  189  GLU189     -0.1977
    179  CA        14.1980   30.4710   27.2520 C.3   189  GLU189      0.1602
    180  C         14.7160   30.6880   28.6760 C.2   189  GLU189      0.2287
    181  O         14.0280   30.3920   29.6600 O.2   189  GLU189     -0.2864
    182  CB        14.6280   29.1020   26.7130 C.3   189  GLU189      0.0415
    183  CG        14.1580   27.9090   27.5340 C.3   189  GLU189      0.1163
    184  CD        14.1880   26.6060   26.7430 C.2   189  GLU189      0.3649
    185  OE1       13.3390   26.4450   25.8420 O.co2 189  GLU189     -0.2457
    186  OE2       15.0560   25.7470   27.0170 O.co2 189  GLU189     -0.2457
    187  N          6.7200   18.9710   19.7050 N.3   242  HIS242     -0.1241
    188  CA         7.6360   20.0980   19.5650 C.3   242  HIS242      0.1621
    189  C          9.0040   19.5800   19.1380 C.2   242  HIS242      0.2264
    190  O          9.7280   18.9760   19.9260 O.2   242  HIS242     -0.2867
    191  CB         7.7630   20.8820   20.8760 C.3   242  HIS242      0.0745
    192  CG         8.6020   22.1210   20.7570 C.ar  242  HIS242      0.0817
    193  ND1        9.1650   22.7530   21.8470 N.ar  242  HIS242     -0.2268
    194  CD2        8.9780   22.8400   19.6720 C.ar  242  HIS242      0.1154
    195  CE1        9.8530   23.8050   21.4380 C.ar  242  HIS242      0.1986
    196  NE2        9.7560   23.8800   20.1230 N.ar  242  HIS242     -0.2212
    197  N         11.9090   20.3730   19.0570 N.3   244  CYS244     -0.1221
    198  CA        12.9740   21.0920   19.7300 C.3   244  CYS244      0.1808
    199  C         14.3390   20.6430   19.1630 C.2   244  CYS244      0.2601
    200  O         14.4950   19.4880   18.7440 O.2   244  CYS244     -0.2717
    201  CB        12.8600   20.7690   21.2220 C.3   244  CYS244      0.0970
    202  SG        14.0500   21.5440   22.2720 S.3   244  CYS244     -0.0800
    203  N         15.3120   21.5520   19.1330 N.am  245  GLY245     -0.1957
    204  CA        16.6280   21.2110   18.6170 C.3   245  GLY245      0.1869
    205  C         16.8750   21.4300   17.1280 C.2   245  GLY245      0.2309
    206  O         16.0080   21.8980   16.3950 O.2   245  GLY245     -0.2863
    207  N         14.4700   19.3060   12.3830 N.3   248  LYS248     -0.1245
    208  CA        13.0850   19.7060   12.1730 C.3   248  LYS248      0.1561
    209  C         12.3670   18.7600   11.2030 C.2   248  LYS248      0.2260
    210  O         12.9930   18.1790   10.3100 O.2   248  LYS248     -0.2867
    211  CB        13.0440   21.1440   11.6290 C.3   248  LYS248      0.0271
    212  CG        13.9020   22.1670   12.4070 C.3   248  LYS248      0.0035
    213  CD        13.3980   22.3930   13.8350 C.3   248  LYS248      0.0206
    214  CE        14.2380   23.4470   14.5660 C.3   248  LYS248      0.1093
    215  NZ        13.8120   23.6390   15.9890 N.3   248  LYS248     -0.1314
@<TRIPOS>BOND
     1    25    24    2
     2    22    21    2
     3    20    19    1
     4    20    21    1
     5    20    23    1
     6    24    23    1
     7    24    26   am
     8    21    27   am
     9    27    28    1
    10    29    28    1
    11    29    30    2
    12    28    31    1
    13    14    13    2
    14    13    12    1
    15    33    35   ar
    16    33    32   ar
    17    12    15    1
    18    12    11    1
    19    31    32    1
    20    15    16    1
    21    17    16   ar
    22   210   209    2
    23    35    37   ar
    24    32    34   ar
    25    16    18   ar
    26    11     8   am
    27   209   208    1
    28    37    38    1
    29    37    36   ar
    30     9     8    2
    31     8     7    1
    32   211   208    1
    33   211   212    1
    34    10     7    1
    35    34    36   ar
    36   122   120    1
    37   208   207    1
    38   212   213    1
    39     7     6    1
    40   123   121    1
    41    69    70    1
    42    69    66    1
    43   120   121    1
    44   120   117    1
    45    76    75    1
    46     6     3   am
    47   119   118    2
    48    50    49    2
    49   213   214    1
    50    48    51    1
    51    48    49    1
    52    48    47    1
    53    51    52    1
    54   118   117    1
    55   118   124   am
    56    49    57   am
    57   214   215    1
    58   117   116    1
    59    66    65    1
    60    66    67    1
    61     3     4    2
    62     3     2    1
    63    75    77    1
    64    75    72    1
    65   125   124    1
    66   125   128    1
    67   125   126    1
    68    65    59   am
    69   128   129    1
    70    52    54   ar
    71    52    53   ar
    72    57    58    1
    73    59    60    2
    74    59    58    1
    75   126   127    2
    76    54    56   ar
    77    67    68    2
    78     2     1    1
    79     2     5    1
    80    71    72    1
    81    58    61    1
    82   116   110   am
    83    72    73    1
    84   206   205    2
    85    53    55   ar
    86   129   131   ar
    87   129   130   ar
    88   111   110    2
    89   110   109    1
    90    56    55   ar
    91   205   204    1
    92    42    41    2
    93    73    74    2
    94    73    78   am
    95    61    62    1
    96    61    63    1
    97    41    40    1
    98    62    64    1
    99    78    79    1
   100   109   112    1
   101   109   108    1
   102   204   203    1
   103   200   199    2
   104    79    82    1
   105    79    80    1
   106   112   113    1
   107    40    39    1
   108    40    43    1
   109    45    43    1
   110   197   198    1
   111   203   199   am
   112   189   188    1
   113   189   190    2
   114   199   198    1
   115    82    84    1
   116    82    83    1
   117   107   106    1
   118   188   187    1
   119   188   191    1
   120   194   196   ar
   121   194   192   ar
   122    43    44    1
   123   198   201    1
   124   113   115   ar
   125   113   114   ar
   126   196   195   ar
   127    80    81    2
   128   104   106   ar
   129   104   102   ar
   130   106   105   ar
   131    95    93    1
   132   192   191    1
   133   192   193   ar
   134   169   167   am
   135   102   101   ar
   136    44    46    1
   137   201   202    1
   138   168   167    2
   139   105   103   ar
   140    85    86    1
   141   195   193   ar
   142   148   147    2
   143    98    97    1
   144    98    99    2
   145    93    92    2
   146    93    94    1
   147   167   166    1
   148   101   103   ar
   149   101   100    1
   150    92    91    1
   151    97   100    1
   152    97    96    1
   153    86    89    1
   154    86    87    1
   155    89    90    1
   156   146   147    1
   157   146   145    1
   158   176   175   ar
   159   166   165    1
   160    91    90    1
   161   175   177   ar
   162   175   174    1
   163    87    88    2
   164   165   162    1
   165   143   142    2
   166   145   142   am
   167   174   171    1
   168   142   141    1
   169   138   137    2
   170   139   137   am
   171   170   171    1
   172   170   163   am
   173   162   161    1
   174   162   163    1
   175   152   151    2
   176   137   136    1
   177   171   172    1
   178   151   161   am
   179   151   150    1
   180   144   141    1
   181   141   140    1
   182   185   184   ar
   183   163   164    2
   184   150   149    1
   185   150   153    1
   186   156   158   ar
   187   156   154   ar
   188   140   134   am
   189   178   172   am
   190   178   179    1
   191   172   173    2
   192   158   159   ar
   193   182   179    1
   194   182   183    1
   195   184   186   ar
   196   184   183    1
   197   136   133    1
   198   153   154    1
   199   134   135    2
   200   134   133    1
   201   154   155   ar
   202   179   180    1
   203   133   132    1
   204   159   160    1
   205   159   157   ar
   206   155   157   ar
   207   180   181    2
