@<TRIPOS>MOLECULE
tmp/1sshA00.pdb
 133 132 0 0 0
SMALL
GASTEIGER

@<TRIPOS>ATOM
      1  N          7.2720   -2.8200   34.7320 N.3    10  TYR10      -0.1227
      2  CA         7.9150   -4.0130   35.2810 C.3    10  TYR10       0.1736
      3  C          6.8290   -4.8580   35.9090 C.2    10  TYR10       0.2596
      4  O          5.7910   -4.3350   36.2830 O.2    10  TYR10      -0.2718
      5  CB         8.9310   -3.6440   36.3780 C.3    10  TYR10       0.0548
      6  CG         9.9420   -2.6280   35.9790 C.ar   10  TYR10      -0.0200
      7  CD1       11.1060   -3.0330   35.3470 C.ar   10  TYR10      -0.0009
      8  CD2        9.7360   -1.2680   36.1760 C.ar   10  TYR10      -0.0009
      9  CE1       12.0450   -2.1210   34.9360 C.ar   10  TYR10       0.0417
     10  CE2       10.6900   -0.3410   35.7620 C.ar   10  TYR10       0.0417
     11  CZ        11.8160   -0.7830   35.1470 C.ar   10  TYR10       0.1957
     12  OH        12.7840    0.1150   34.7410 O.3    10  TYR10      -0.2866
     13  N          7.1050   -6.1370   36.1050 N.am   11  SER11      -0.1938
     14  CA         6.1870   -6.9850   36.8410 C.3    11  SER11       0.2055
     15  C          6.2650   -6.7200   38.3260 C.2    11  SER11       0.2643
     16  O          7.3180   -6.3070   38.8410 O.2    11  SER11      -0.2714
     17  CB         6.4910   -8.4570   36.5920 C.3    11  SER11       0.2130
     18  OG         7.7920   -8.8340   37.0570 O.3    11  SER11      -0.2179
     19  N          5.1440   -6.8880   39.0090 N.am   12  PHE12      -0.1973
     20  CA         5.0330   -6.7260   40.4730 C.3    12  PHE12       0.1639
     21  C          4.2470   -7.9150   41.0340 C.2    12  PHE12       0.2290
     22  O          3.1080   -8.1480   40.6670 O.2    12  PHE12      -0.2864
     23  CB         4.3090   -5.4110   40.7810 C.3    12  PHE12       0.0560
     24  CG         3.9860   -5.2090   42.2600 C.ar   12  PHE12      -0.0200
     25  CD1        4.9950   -5.1600   43.2310 C.ar   12  PHE12      -0.0042
     26  CD2        2.6660   -5.1060   42.6830 C.ar   12  PHE12      -0.0042
     27  CE1        4.6980   -5.0090   44.5950 C.ar   12  PHE12      -0.0003
     28  CE2        2.3800   -4.9670   44.0400 C.ar   12  PHE12      -0.0003
     29  CZ         3.3910   -4.8910   44.9760 C.ar   12  PHE12      -0.0000
     30  N          3.7570   -8.5970   44.4810 N.3    14  GLY14      -0.1210
     31  CA         3.1680   -8.3870   45.7710 C.3    14  GLY14       0.1956
     32  C          3.8060   -9.2270   46.8780 C.2    14  GLY14       0.2612
     33  O          4.5890  -10.1790   46.6760 O.2    14  GLY14      -0.2717
     34  N          3.4690   -8.8750   48.1100 N.am   15  GLU15      -0.1965
     35  CA         4.0310   -9.5060   49.2870 C.3    15  GLU15       0.1733
     36  C          2.9300   -9.7910   50.3270 C.2    15  GLU15       0.2616
     37  O          3.0400  -10.7200   51.1440 O.2    15  GLU15      -0.2715
     38  CB         5.1790   -8.6320   49.8680 C.3    15  GLU15       0.0429
     39  CG         6.0320   -9.2480   50.9630 C.3    15  GLU15       0.1163
     40  CD         7.3060   -8.4500   51.2600 C.2    15  GLU15       0.3649
     41  OE1        7.5750   -7.3960   50.5940 O.co2  15  GLU15      -0.2457
     42  OE2        8.0240   -8.8920   52.1950 O.co2  15  GLU15      -0.2457
     43  N          1.8630   -8.9910   50.3100 N.am   16  GLU16      -0.1977
     44  CA         0.7490   -9.1670   51.2740 C.3    16  GLU16       0.1602
     45  C         -0.6490   -9.1090   50.6380 C.2    16  GLU16       0.2287
     46  O         -0.7580   -8.7640   49.4970 O.2    16  GLU16      -0.2864
     47  CB         0.8970   -8.2130   52.4620 C.3    16  GLU16       0.0415
     48  CG         1.2160   -6.7920   52.1050 C.3    16  GLU16       0.1163
     49  CD         1.2220   -5.8670   53.3190 C.2    16  GLU16       0.3649
     50  OE1        2.2610   -5.7890   54.0170 O.co2  16  GLU16      -0.2457
     51  OE2        0.1860   -5.1930   53.5510 O.co2  16  GLU16      -0.2457
     52  N         -2.1090   -6.2770   48.2590 N.3    19  ASP19      -0.1239
     53  CA        -1.3220   -5.8260   47.1300 C.3    19  ASP19       0.1674
     54  C         -1.9960   -6.2320   45.8100 C.2    19  ASP19       0.2266
     55  O         -2.8690   -7.1320   45.7830 O.2    19  ASP19      -0.2867
     56  CB         0.0830   -6.4330   47.1800 C.3    19  ASP19       0.1410
     57  CG         0.9240   -5.9300   48.3110 C.2    19  ASP19       0.3668
     58  OD1        0.5480   -4.9430   48.9900 O.co2  19  ASP19      -0.2456
     59  OD2        2.0090   -6.4700   48.5670 O.co2  19  ASP19      -0.2456
     60  N          5.3670    9.5890   42.2000 N.3    37  GLN37      -0.1231
     61  CA         5.6310    8.2200   41.7650 C.3    37  GLN37       0.1698
     62  C          6.5230    7.4350   42.7530 C.2    37  GLN37       0.2592
     63  O          6.5440    6.1850   42.7410 O.2    37  GLN37      -0.2718
     64  CB         6.1960    8.1710   40.3480 C.3    37  GLN37       0.0381
     65  CG         5.0680    8.3500   39.4040 C.3    37  GLN37       0.0905
     66  CD         5.4870    8.5910   37.9800 C.2    37  GLN37       0.2608
     67  OE1        6.6770    8.6040   37.6540 O.2    37  GLN37      -0.2717
     68  NE2        4.5020    8.7860   37.1210 N.am   37  GLN37      -0.0878
     69  N          7.1270    8.1410   43.6860 N.am   38  ASN38      -0.1960
     70  CA         7.8840    7.5360   44.7780 C.3    38  ASN38       0.1819
     71  C          6.9340    7.3240   45.9730 C.2    38  ASN38       0.2621
     72  O          7.1350    7.8260   47.0800 O.2    38  ASN38      -0.2715
     73  CB         9.0540    8.4570   45.1180 C.3    38  ASN38       0.1195
     74  CG         9.9200    7.9590   46.2680 C.2    38  ASN38       0.2630
     75  OD1       10.2430    6.7680   46.3570 O.2    38  ASN38      -0.2716
     76  ND2       10.3250    8.8840   47.1340 N.am   38  ASN38      -0.0877
     77  N          5.9080    6.5200   45.7160 N.am   39  ASP39      -0.1957
     78  CA         4.7420    6.3330   46.6110 C.3    39  ASP39       0.1840
     79  C          4.0160    5.0730   46.1220 C.2    39  ASP39       0.2622
     80  O          4.3900    4.5220   45.0860 O.2    39  ASP39      -0.2715
     81  CB         3.8360    7.5610   46.5190 C.3    39  ASP39       0.1450
     82  CG         2.8120    7.6820   47.6390 C.2    39  ASP39       0.3671
     83  OD1        2.7800    6.8980   48.6260 O.co2  39  ASP39      -0.2456
     84  OD2        1.9940    8.6310   47.6070 O.co2  39  ASP39      -0.2456
     85  N          2.9980    4.6120   46.8530 N.am   40  TRP40      -0.1974
     86  CA         2.1570    3.5090   46.4000 C.3    40  TRP40       0.1640
     87  C          0.7730    4.0670   46.0920 C.2    40  TRP40       0.2290
     88  O          0.2500    4.9260   46.8180 O.2    40  TRP40      -0.2864
     89  CB         2.0400    2.4150   47.4470 C.3    40  TRP40       0.0576
     90  CG         3.3060    1.6440   47.7050 C.ar   40  TRP40       0.0006
     91  CD1        4.5420    2.1620   48.0040 C.ar   40  TRP40       0.0946
     92  CD2        3.4720    0.2400   47.6460 C.ar   40  TRP40       0.0152
     93  NE1        5.4700    1.1510   48.1250 N.ar   40  TRP40      -0.2442
     94  CE2        4.8430   -0.0470   47.8890 C.ar   40  TRP40       0.0810
     95  CE3        2.6040   -0.8440   47.3780 C.ar   40  TRP40       0.0012
     96  CZ2        5.3490   -1.3660   47.9220 C.ar   40  TRP40       0.0191
     97  CZ3        3.1070   -2.1170   47.4060 C.ar   40  TRP40       0.0001
     98  CH2        4.4660   -2.3730   47.6850 C.ar   40  TRP40       0.0015
     99  N         -2.9940   -2.1990   46.3130 N.3    51  ILE51      -0.1245
    100  CA        -1.9470   -1.1910   46.1930 C.3    51  ILE51       0.1561
    101  C         -0.7040   -1.7390   45.4930 C.2    51  ILE51       0.2260
    102  O         -0.4550   -2.9420   45.4840 O.2    51  ILE51      -0.2867
    103  CB        -1.5930   -0.6010   47.5910 C.3    51  ILE51       0.0252
    104  CG1       -1.0120   -1.6490   48.5260 C.3    51  ILE51       0.0019
    105  CG2       -2.8050    0.0330   48.2120 C.3    51  ILE51       0.0019
    106  CD1       -0.4410   -1.1040   49.8400 C.3    51  ILE51       0.0001
    107  N          3.5570   -0.2950   43.9560 N.3    53  PRO53      -0.2116
    108  CA         4.5550    0.7850   43.8380 C.3    53  PRO53       0.1372
    109  C          4.3800    1.6070   42.5800 C.2    53  PRO53       0.2244
    110  O          4.4020    1.0440   41.4570 O.2    53  PRO53      -0.2868
    111  CB         5.8810    0.0340   43.8670 C.3    53  PRO53       0.0268
    112  CG         5.5370   -1.3190   43.2880 C.3    53  PRO53       0.0207
    113  CD         4.1830   -1.6310   43.8710 C.3    53  PRO53       0.0892
    114  N          6.2510    3.6710   40.9590 N.3    55  ASN55      -0.1225
    115  CA         7.3580    3.7000   40.0120 C.3    55  ASN55       0.1785
    116  C          7.4190    2.4660   39.0800 C.2    55  ASN55       0.2597
    117  O          8.2800    2.3820   38.1880 O.2    55  ASN55      -0.2718
    118  CB         8.7120    3.9420   40.7210 C.3    55  ASN55       0.1169
    119  CG         9.1180    2.8150   41.6610 C.2    55  ASN55       0.2627
    120  OD1        8.2550    2.1510   42.2770 O.2    55  ASN55      -0.2716
    121  ND2       10.4120    2.5930   41.7740 N.am   55  ASN55      -0.0877
    122  N          6.4930    1.5430   39.2730 N.am   56  TYR56      -0.1976
    123  CA         6.3900    0.3650   38.4200 C.3    56  TYR56       0.1639
    124  C          5.4550    0.5720   37.1990 C.2    56  TYR56       0.2290
    125  O          5.2630   -0.3680   36.4330 O.2    56  TYR56      -0.2864
    126  CB         5.9760   -0.8860   39.2360 C.3    56  TYR56       0.0560
    127  CG         7.1960   -1.5290   39.8630 C.ar   56  TYR56      -0.0198
    128  CD1        8.0710   -0.8000   40.6580 C.ar   56  TYR56      -0.0009
    129  CD2        7.5030   -2.8750   39.6360 C.ar   56  TYR56      -0.0009
    130  CE1        9.2680   -1.3820   41.1610 C.ar   56  TYR56       0.0417
    131  CE2        8.6740   -3.4540   40.1230 C.ar   56  TYR56       0.0417
    132  CZ         9.5430   -2.7060   40.9140 C.ar   56  TYR56       0.1957
    133  OH        10.7180   -3.2760   41.3510 O.3    56  TYR56      -0.2866
@<TRIPOS>BOND
     1     1     2    1
     2    12    11    1
     3     9    11   ar
     4     9     7   ar
     5    11    10   ar
     6     2     3    1
     7     2     5    1
     8     7     6   ar
     9    10     8   ar
    10     3    13   am
    11     3     4    2
    12     6     8   ar
    13     6     5    1
    14    13    14    1
    15   125   124    2
    16    17    14    1
    17    17    18    1
    18    14    15    1
    19    68    66   am
    20   124   123    1
    21    67    66    2
    22    66    65    1
    23   117   116    2
    24    15    16    2
    25    15    19   am
    26   123   126    1
    27   123   122    1
    28    19    20    1
    29   116   122   am
    30   116   115    1
    31   126   127    1
    32    65    64    1
    33   129   127   ar
    34   129   131   ar
    35   127   128   ar
    36   115   118    1
    37   115   114    1
    38   131   132   ar
    39    64    61    1
    40    20    23    1
    41    20    21    1
    42   128   130   ar
    43    22    21    2
    44   118   119    1
    45    23    24    1
    46   132   130   ar
    47   132   133    1
    48   110   109    2
    49   119   121   am
    50   119   120    2
    51    61    60    1
    52    61    62    1
    53    24    26   ar
    54    24    25   ar
    55   109   108    1
    56    26    28   ar
    57    63    62    2
    58    62    69   am
    59    25    27   ar
    60   112   111    1
    61   112   113    1
    62    69    70    1
    63   108   111    1
    64   108   107    1
    65   113   107    1
    66    28    29   ar
    67    30    31    1
    68    27    29   ar
    69    70    73    1
    70    70    71    1
    71    80    79    2
    72    73    74    1
    73   102   101    2
    74   101   100    1
    75    77    71   am
    76    77    78    1
    77    31    32    1
    78    55    54    2
    79    54    53    1
    80    71    72    2
    81    87    86    1
    82    87    88    2
    83    79    78    1
    84    79    85   am
    85   100    99    1
    86   100   103    1
    87    74    75    2
    88    74    76   am
    89    86    85    1
    90    86    89    1
    91    81    78    1
    92    81    82    1
    93    33    32    2
    94    32    34   am
    95    53    56    1
    96    53    52    1
    97    56    57    1
    98    95    97   ar
    99    95    92   ar
   100    97    98   ar
   101    89    90    1
   102   103   105    1
   103   103   104    1
   104    84    82   ar
   105    82    83   ar
   106    92    90   ar
   107    92    94   ar
   108    98    96   ar
   109    90    91   ar
   110    94    96   ar
   111    94    93   ar
   112    91    93   ar
   113    34    35    1
   114    57    59   ar
   115    57    58   ar
   116   104   106    1
   117    35    38    1
   118    35    36    1
   119    46    45    2
   120    38    39    1
   121    43    36   am
   122    43    44    1
   123    36    37    2
   124    41    40   ar
   125    45    44    1
   126    39    40    1
   127    40    42   ar
   128    44    47    1
   129    48    47    1
   130    48    49    1
   131    49    51   ar
   132    49    50   ar
