@<TRIPOS>MOLECULE
tmp/1sstB00.pdb
 97 90 0 0 0
SMALL
GASTEIGER

@<TRIPOS>ATOM
      1  N         26.0300   19.1630   30.7820 N.3   159  VAL159     -0.1245
      2  CA        26.1070   20.1930   31.8190 C.3   159  VAL159      0.1561
      3  C         25.2240   19.7950   33.0210 C.2   159  VAL159      0.2260
      4  O         24.0080   19.5850   32.8930 O.2   159  VAL159     -0.2867
      5  CB        25.6620   21.5970   31.2920 C.3   159  VAL159      0.0252
      6  CG1       25.7280   22.6400   32.4070 C.3   159  VAL159      0.0019
      7  CG2       26.5650   22.0390   30.1280 C.3   159  VAL159      0.0019
      8  N         24.0610   20.9110   36.8320 N.3   161  GLY161     -0.1225
      9  CA        24.0080   21.9860   37.8000 C.3   161  GLY161      0.1811
     10  C         24.4100   21.6390   39.2180 C.2   161  GLY161      0.2280
     11  O         24.3750   20.4840   39.6430 O.2   161  GLY161     -0.2866
     12  N         21.4860   18.6300   29.4970 N.3   177  THR177     -0.1203
     13  CA        21.6430   19.6250   30.5500 C.3   177  THR177      0.1994
     14  C         20.7200   19.3220   31.7350 C.2   177  THR177      0.2618
     15  O         19.4930   19.1110   31.5730 O.2   177  THR177     -0.2717
     16  CB        21.2880   21.0690   30.0800 C.3   177  THR177      0.1784
     17  OG1       22.2680   21.5510   29.1400 O.3   177  THR177     -0.2211
     18  CG2       21.2350   22.0120   31.2760 C.3   177  THR177      0.0376
     19  N         21.3180   19.2780   32.9200 N.am  178  LEU178     -0.1965
     20  CA        20.5610   19.0870   34.1510 C.3   178  LEU178      0.1728
     21  C         20.8140   20.4410   34.7790 C.2   178  LEU178      0.2617
     22  O         21.9130   20.7250   35.2570 O.2   178  LEU178     -0.2715
     23  CB        21.1340   17.9540   35.0130 C.3   178  LEU178      0.0311
     24  CG        21.0790   16.5520   34.3950 C.3   178  LEU178      0.0022
     25  CD1       21.6920   15.5010   35.3390 C.3   178  LEU178      0.0001
     26  CD2       19.6400   16.2320   34.0680 C.3   178  LEU178      0.0001
     27  N         19.8090   21.3080   34.7190 N.am  179  GLY179     -0.1940
     28  CA        19.9880   22.6440   35.2500 C.3   179  GLY179      0.2014
     29  C         18.7040   23.3130   35.6830 C.2   179  GLY179      0.2639
     30  O         17.6920   22.6560   35.9400 O.2   179  GLY179     -0.2714
     31  N         18.7320   24.6400   35.7400 N.am  180  GLY180     -0.1939
     32  CA        17.5660   25.3630   36.2070 C.3   180  GLY180      0.2014
     33  C         16.7630   26.0990   35.1690 C.2   180  GLY180      0.2639
     34  O         17.1760   26.2410   34.0080 O.2   180  GLY180     -0.2714
     35  N         15.5900   26.5560   35.5910 N.am  181  THR181     -0.1950
     36  CA        14.7270   27.3070   34.7020 C.3   181  THR181      0.1897
     37  C         15.1540   28.7650   34.7870 C.2   181  THR181      0.2313
     38  O         15.1490   29.4760   33.7780 O.2   181  THR181     -0.2863
     39  CB        13.2530   27.1790   35.1180 C.3   181  THR181      0.1794
     40  OG1       13.1690   27.0550   36.5390 O.3   181  THR181     -0.2208
     41  CG2       12.6160   25.9680   34.4770 C.3   181  THR181      0.0378
     42  N         17.9980   22.4310   40.7370 N.3   184  HIS184     -0.1241
     43  CA        18.2720   21.4850   39.6630 C.3   184  HIS184      0.1621
     44  C         17.6260   20.1170   39.8540 C.2   184  HIS184      0.2264
     45  O         17.2480   19.7390   40.9540 O.2   184  HIS184     -0.2867
     46  CB        19.7910   21.3150   39.4920 C.3   184  HIS184      0.0745
     47  CG        20.5360   22.6060   39.3350 C.ar  184  HIS184      0.0817
     48  ND1       20.2660   23.5070   38.3220 N.ar  184  HIS184     -0.2268
     49  CD2       21.5810   23.1200   40.0300 C.ar  184  HIS184      0.1154
     50  CE1       21.1140   24.5180   38.4020 C.ar  184  HIS184      0.1986
     51  NE2       21.9220   24.3060   39.4260 N.ar  184  HIS184     -0.2212
     52  N         17.0630   18.6660   27.7950 N.3   198  LYS198     -0.1245
     53  CA        17.2730   19.7430   28.7390 C.3   198  LYS198      0.1561
     54  C         16.2710   19.5190   29.8750 C.2   198  LYS198      0.2260
     55  O         15.0640   19.6520   29.6670 O.2   198  LYS198     -0.2867
     56  CB        17.0180   21.0830   28.0510 C.3   198  LYS198      0.0271
     57  CG        17.8080   21.2970   26.7620 C.3   198  LYS198      0.0035
     58  CD        19.3390   21.3420   26.9820 C.3   198  LYS198      0.0206
     59  CE        20.1020   21.7510   25.7310 C.3   198  LYS198      0.1093
     60  NZ        20.2580   20.6650   24.6930 N.3   198  LYS198     -0.1314
     61  N         15.0120   20.9090   33.2580 N.3   200  LEU200     -0.1245
     62  CA        15.0850   22.1260   34.0800 C.3   200  LEU200      0.1561
     63  C         14.3080   22.1730   35.3860 C.2   200  LEU200      0.2260
     64  O         13.1440   21.7460   35.4410 O.2   200  LEU200     -0.2867
     65  CB        14.6620   23.3340   33.2340 C.3   200  LEU200      0.0270
     66  CG        15.3150   23.4080   31.8540 C.3   200  LEU200      0.0019
     67  CD1       14.7340   24.5570   30.9900 C.3   200  LEU200      0.0001
     68  CD2       16.7880   23.6190   32.0910 C.3   200  LEU200      0.0001
     69  N         12.4610   18.7110   26.6970 N.3   216  VAL216     -0.1245
     70  CA        12.6820   19.7880   27.6480 C.3   216  VAL216      0.1561
     71  C         11.7350   19.4430   28.7860 C.2   216  VAL216      0.2260
     72  O         10.5100   19.6530   28.6860 O.2   216  VAL216     -0.2867
     73  CB        12.2920   21.1420   27.0810 C.3   216  VAL216      0.0252
     74  CG1       12.5300   22.2250   28.1270 C.3   216  VAL216      0.0019
     75  CG2       13.0760   21.4160   25.8060 C.3   216  VAL216      0.0019
     76  N         10.1240   19.9110   32.2760 N.3   218  LEU218     -0.1245
     77  CA         9.7720   20.9680   33.2060 C.3   218  LEU218      0.1561
     78  C          8.9810   20.4940   34.4040 C.2   218  LEU218      0.2260
     79  O          9.0520   21.1100   35.4520 O.2   218  LEU218     -0.2867
     80  CB         8.9780   22.0470   32.4810 C.3   218  LEU218      0.0270
     81  CG         9.6860   22.4770   31.1980 C.3   218  LEU218      0.0019
     82  CD1        8.7170   23.2930   30.2830 C.3   218  LEU218      0.0001
     83  CD2       10.9330   23.2980   31.6030 C.3   218  LEU218      0.0001
     84  N          8.8470   18.8970   23.5920 N.3   230  VAL230     -0.1231
     85  CA         9.2520   20.2360   24.0160 C.3   230  VAL230      0.1678
     86  C          8.0000   21.1260   24.2180 C.2   230  VAL230      0.2434
     87  O          7.5300   21.7720   23.2720 O.2   230  VAL230     -0.2733
     88  CB        10.1190   20.9210   22.9360 C.3   230  VAL230      0.0265
     89  CG1       10.6260   22.2490   23.4560 C.3   230  VAL230      0.0020
     90  CG2       11.2830   20.0080   22.5220 C.3   230  VAL230      0.0020
     91  N          7.4380   21.1840   25.4380 N.am  231  PRO231     -0.2729
     92  CA         7.7620   20.5710   26.7230 C.3   231  PRO231      0.1401
     93  C          7.5240   19.0710   26.6420 C.2   231  PRO231      0.2269
     94  O          6.8410   18.5830   25.7380 O.2   231  PRO231     -0.2865
     95  CB         6.7700   21.2180   27.6920 C.3   231  PRO231      0.0296
     96  CG         6.2720   22.4630   26.9590 C.3   231  PRO231      0.0237
     97  CD         6.2170   21.9940   25.5450 C.3   231  PRO231      0.0939
@<TRIPOS>BOND
     1    90    88    1
     2    88    89    1
     3    88    85    1
     4    87    86    2
     5    84    85    1
     6    85    86    1
     7    86    91   am
     8    60    59    1
     9    91    97    1
    10    91    92    1
    11    97    96    1
    12    59    58    1
    13    94    93    2
    14    75    73    1
    15    93    92    1
    16    69    70    1
    17    92    95    1
    18    57    58    1
    19    57    56    1
    20    96    95    1
    21    73    70    1
    22    73    74    1
    23    70    71    1
    24    52    53    1
    25    56    53    1
    26    72    71    2
    27    53    54    1
    28    17    16    1
    29    12    13    1
    30    55    54    2
    31    16    13    1
    32    16    18    1
    33     7     5    1
    34    82    81    1
    35    13    14    1
    36     1     2    1
    37    67    66    1
    38    81    83    1
    39    81    80    1
    40     5     2    1
    41     5     6    1
    42    15    14    2
    43    14    19   am
    44     2     3    1
    45    66    68    1
    46    66    65    1
    47    76    77    1
    48    80    77    1
    49     4     3    2
    50    19    20    1
    51    77    78    1
    52    65    62    1
    53    61    62    1
    54    38    37    2
    55    34    33    2
    56    26    24    1
    57    62    63    1
    58    20    21    1
    59    20    23    1
    60    24    23    1
    61    24    25    1
    62    78    79    2
    63    41    39    1
    64    36    37    1
    65    36    39    1
    66    36    35    1
    67    27    21   am
    68    27    28    1
    69    21    22    2
    70    39    40    1
    71    33    35   am
    72    33    32    1
    73    28    29    1
    74    63    64    2
    75    29    31   am
    76    29    30    2
    77    31    32    1
    78     8     9    1
    79     9    10    1
    80    48    50   ar
    81    48    47   ar
    82    50    51   ar
    83    10    11    2
    84    47    46    1
    85    47    49   ar
    86    51    49   ar
    87    46    43    1
    88    43    44    1
    89    43    42    1
    90    44    45    2
