@<TRIPOS>MOLECULE
tmp/1sstB01.pdb
 101 94 0 0 0
SMALL
GASTEIGER

@<TRIPOS>ATOM
      1  N         27.7470    8.4100   27.8360 N.3   153  ASP153     -0.1225
      2  CA        28.1110    7.9450   26.5190 C.3   153  ASP153      0.1805
      3  C         28.2770    9.1250   25.5660 C.2   153  ASP153      0.2597
      4  O         27.3530    9.9230   25.4130 O.2   153  ASP153     -0.2718
      5  CB        27.0270    7.0010   26.0180 C.3   153  ASP153      0.1424
      6  CG        27.4310    6.2810   24.7620 C.2   153  ASP153      0.3668
      7  OD1       28.6440    6.2320   24.4930 O.co2 153  ASP153     -0.2456
      8  OD2       26.5340    5.7450   24.0650 O.co2 153  ASP153     -0.2456
      9  N         29.4430    9.2110   24.9230 N.am  154  HIS154     -0.1975
     10  CA        29.7650   10.2900   23.9860 C.3   154  HIS154      0.1656
     11  C         30.0510   11.5420   24.8280 C.2   154  HIS154      0.2291
     12  O         31.1320   12.1100   24.7360 O.2   154  HIS154     -0.2864
     13  CB        28.6270   10.4630   22.9970 C.3   154  HIS154      0.0771
     14  CG        28.2870    9.1980   22.2760 C.ar  154  HIS154      0.0820
     15  ND1       29.1770    8.5470   21.4480 N.ar  154  HIS154     -0.2267
     16  CD2       27.1680    8.4400   22.2920 C.ar  154  HIS154      0.1154
     17  CE1       28.6210    7.4420   20.9810 C.ar  154  HIS154      0.1986
     18  NE2       27.4000    7.3540   21.4790 N.ar  154  HIS154     -0.2212
     19  N         23.3190   10.8750   27.7640 N.3   173  LEU173     -0.1231
     20  CA        23.9480   11.0250   26.4550 C.3   173  LEU173      0.1693
     21  C         24.4100   12.4540   26.1590 C.2   173  LEU173      0.2591
     22  O         24.2540   13.3460   26.9940 O.2   173  LEU173     -0.2718
     23  CB        22.9670   10.5450   25.3960 C.3   173  LEU173      0.0284
     24  CG        22.8420    9.0260   25.4070 C.3   173  LEU173      0.0019
     25  CD1       21.5020    8.6340   24.8010 C.3   173  LEU173      0.0001
     26  CD2       24.0030    8.4070   24.6170 C.3   173  LEU173      0.0001
     27  N         24.9870   12.6580   24.9740 N.am  174  GLN174     -0.1979
     28  CA        25.4820   13.9680   24.5440 C.3   174  GLN174      0.1601
     29  C         24.4560   15.1270   24.5750 C.2   174  GLN174      0.2287
     30  O         23.2690   14.9220   24.3440 O.2   174  GLN174     -0.2864
     31  CB        26.0660   13.8510   23.1110 C.3   174  GLN174      0.0394
     32  CG        25.0940   13.3600   21.9960 C.3   174  GLN174      0.0908
     33  CD        25.1740   11.8440   21.7410 C.2   174  GLN174      0.2608
     34  OE1       25.6720   11.0910   22.5820 O.2   174  GLN174     -0.2717
     35  NE2       24.6750   11.3980   20.5890 N.am  174  GLN174     -0.0878
     36  N         17.3620    6.7650   31.8810 N.3   192  MET192     -0.1245
     37  CA        18.1060    6.8730   30.6170 C.3   192  MET192      0.1570
     38  C         17.7010    8.2220   30.0480 C.2   192  MET192      0.2261
     39  O         16.5150    8.4670   29.8330 O.2   192  MET192     -0.2867
     40  CB        17.7100    5.7920   29.5890 C.3   192  MET192      0.0387
     41  CG        17.7980    4.3310   30.0380 C.3   192  MET192      0.0595
     42  SD        16.7850    3.1720   28.9230 S.3   192  MET192     -0.1393
     43  CE        15.7500    2.2190   30.2150 C.3   192  MET192      0.0692
     44  N         17.9840   10.7990   26.8840 N.3   194  GLY194     -0.1210
     45  CA        18.3880   10.9190   25.4950 C.3   194  GLY194      0.1956
     46  C         19.1840   12.1770   25.1450 C.2   194  GLY194      0.2611
     47  O         19.1550   13.1850   25.8540 O.2   194  GLY194     -0.2717
     48  N         19.8750   12.1120   24.0130 N.am  195  ALA195     -0.1979
     49  CA        20.7110   13.1990   23.5370 C.3   195  ALA195      0.1597
     50  C         19.9740   14.5190   23.3260 C.2   195  ALA195      0.2287
     51  O         18.8550   14.5610   22.7920 O.2   195  ALA195     -0.2864
     52  CB        21.4050   12.7700   22.2570 C.3   195  ALA195      0.0319
     53  N         12.5210    7.1380   31.1240 N.3   210  LYS210     -0.1231
     54  CA        13.2150    7.3530   29.8670 C.3   210  LYS210      0.1693
     55  C         12.8690    8.7470   29.3750 C.2   210  LYS210      0.2592
     56  O         11.6860    9.1470   29.3510 O.2   210  LYS210     -0.2718
     57  CB        12.7830    6.3320   28.8200 C.3   210  LYS210      0.0285
     58  CG        13.2430    4.9280   29.1230 C.3   210  LYS210      0.0035
     59  CD        12.8050    3.9730   28.0280 C.3   210  LYS210      0.0206
     60  CE        12.7710    2.5460   28.5410 C.3   210  LYS210      0.1093
     61  NZ        11.9360    1.6770   27.6820 N.3   210  LYS210     -0.1314
     62  N         13.9020    9.4860   28.9880 N.am  211  ILE211     -0.1966
     63  CA        13.7440   10.8430   28.5030 C.3   211  ILE211      0.1727
     64  C         14.1130   10.8870   27.0270 C.2   211  ILE211      0.2617
     65  O         15.2240   10.5360   26.6470 O.2   211  ILE211     -0.2715
     66  CB        14.6650   11.8190   29.2620 C.3   211  ILE211      0.0290
     67  CG1       14.4740   11.6650   30.7760 C.3   211  ILE211      0.0022
     68  CG2       14.3690   13.2330   28.8300 C.3   211  ILE211      0.0023
     69  CD1       13.0260   11.7930   31.2520 C.3   211  ILE211      0.0001
     70  N         13.1800   11.3190   26.1860 N.am  212  GLY212     -0.1940
     71  CA        13.4810   11.3740   24.7620 C.3   212  GLY212      0.2014
     72  C         14.5110   12.4400   24.3820 C.2   212  GLY212      0.2638
     73  O         14.6910   13.4700   25.0740 O.2   212  GLY212     -0.2714
     74  N         15.2120   12.1690   23.2810 N.am  213  ALA213     -0.1977
     75  CA        16.2060   13.0830   22.7380 C.3   213  ALA213      0.1597
     76  C         15.5490   14.4410   22.4940 C.2   213  ALA213      0.2287
     77  O         14.3790   14.5000   22.0680 O.2   213  ALA213     -0.2864
     78  CB        16.7260   12.5280   21.4710 C.3   213  ALA213      0.0319
     79  N          8.0510    7.4610   30.4560 N.3   226  THR226     -0.1218
     80  CA         8.8110    7.9560   29.3010 C.3   226  THR226      0.1862
     81  C          8.3340    9.3620   28.9620 C.2   226  THR226      0.2287
     82  O          7.1520    9.6050   28.6590 O.2   226  THR226     -0.2866
     83  CB         8.6130    7.0570   28.0910 C.3   226  THR226      0.1770
     84  OG1        9.3070    5.8310   28.3200 O.3   226  THR226     -0.2211
     85  CG2        9.1570    7.7070   26.8300 C.3   226  THR226      0.0375
     86  N          8.8530   12.6840   26.5620 N.3   228  ALA228     -0.1231
     87  CA         9.3780   13.1590   25.2780 C.3   228  ALA228      0.1694
     88  C          8.5890   14.3830   24.8230 C.2   228  ALA228      0.2592
     89  O          7.3960   14.4860   25.0990 O.2   228  ALA228     -0.2718
     90  CB         9.2720   12.0780   24.2390 C.3   228  ALA228      0.0304
     91  N          9.2780   15.3040   24.1430 N.am  229  GLY229     -0.1957
     92  CA         8.6560   16.5050   23.6320 C.3   229  GLY229      0.1869
     93  C          9.2220   17.7830   24.2100 C.2   229  GLY229      0.2309
     94  O          9.9740   17.7640   25.1930 O.2   229  GLY229     -0.2863
     95  N          4.5450    9.7330   27.2600 N.3   235  VAL235     -0.1245
     96  CA         4.0610    8.9820   26.1210 C.3   235  VAL235      0.1561
     97  C          4.3070    7.4920   26.2310 C.2   235  VAL235      0.2260
     98  O          4.4250    6.8820   25.1500 O.2   235  VAL235     -0.2867
     99  CB         4.6950    9.4640   24.7980 C.3   235  VAL235      0.0252
    100  CG1        4.4310   10.9440   24.6120 C.3   235  VAL235      0.0019
    101  CG2        6.2040    9.1240   24.7630 C.3   235  VAL235      0.0019
@<TRIPOS>BOND
     1    35    33   am
     2    17    15   ar
     3    17    18   ar
     4    15    14   ar
     5    78    75    1
     6    18    16   ar
     7    33    32    1
     8    33    34    2
     9    32    31    1
    10    77    76    2
    11    52    49    1
    12    14    16   ar
    13    14    13    1
    14    76    75    1
    15    75    74    1
    16    51    50    2
    17    13    10    1
    18    31    28    1
    19    74    72   am
    20    50    49    1
    21    49    48    1
    22    92    91    1
    23    92    93    1
    24    10    11    1
    25    10     9    1
    26    48    46   am
    27     8     6   ar
    28    91    88   am
    29    93    94    2
    30    90    87    1
    31    30    29    2
    32    72    71    1
    33    72    73    2
    34     7     6   ar
    35    28    29    1
    36    28    27    1
    37   100    99    1
    38    26    24    1
    39    12    11    2
    40    71    70    1
    41     6     5    1
    42   101    99    1
    43    99    96    1
    44    25    24    1
    45    88    89    2
    46    88    87    1
    47     9     3   am
    48    27    21   am
    49    46    45    1
    50    46    47    2
    51    98    97    2
    52    87    86    1
    53    23    24    1
    54    23    20    1
    55     4     3    2
    56    45    44    1
    57     3     2    1
    58     5     2    1
    59    96    97    1
    60    96    95    1
    61    21    20    1
    62    21    22    2
    63    70    64   am
    64    20    19    1
    65     2     1    1
    66    65    64    2
    67    85    83    1
    68    64    63    1
    69    61    60    1
    70    59    60    1
    71    59    58    1
    72    83    84    1
    73    83    80    1
    74    63    62    1
    75    63    66    1
    76    82    81    2
    77    57    58    1
    78    57    54    1
    79    68    66    1
    80    42    41    1
    81    42    43    1
    82    81    80    1
    83    62    55   am
    84    66    67    1
    85    80    79    1
    86    56    55    2
    87    55    54    1
    88    40    41    1
    89    40    37    1
    90    39    38    2
    91    54    53    1
    92    38    37    1
    93    37    36    1
    94    67    69    1
