@<TRIPOS>MOLECULE
tmp/1st8A00.pdb
 84 76 0 0 0
SMALL
GASTEIGER

@<TRIPOS>ATOM
      1  N         42.2030   50.1750   11.9370 N.3   353  VAL353     -0.1245
      2  CA        41.6360   50.5460   10.6470 C.3   353  VAL353      0.1561
      3  C         42.1920   49.5640    9.6150 C.2   353  VAL353      0.2260
      4  O         43.4050   49.4490    9.4400 O.2   353  VAL353     -0.2867
      5  CB        42.0230   51.9880   10.2510 C.3   353  VAL353      0.0252
      6  CG1       41.4860   52.3070    8.8660 C.3   353  VAL353      0.0019
      7  CG2       41.4590   52.9750   11.2670 C.3   353  VAL353      0.0019
      8  N         32.7720   59.0890   14.8740 N.3   397  ALA397     -0.1231
      9  CA        33.7670   58.0220   14.8260 C.3   397  ALA397      0.1694
     10  C         34.9540   58.2720   15.7570 C.2   397  ALA397      0.2592
     11  O         35.6480   57.3300   16.1560 O.2   397  ALA397     -0.2718
     12  CB        34.2600   57.8380   13.3910 C.3   397  ALA397      0.0304
     13  N         35.1860   59.5350   16.1010 N.am  398  SER398     -0.1952
     14  CA        36.2960   59.8890   16.9770 C.3   398  SER398      0.1924
     15  C         35.9670   59.7190   18.4560 C.2   398  SER398      0.2314
     16  O         36.8640   59.7320   19.2900 O.2   398  SER398     -0.2863
     17  CB        36.7280   61.3290   16.7250 C.3   398  SER398      0.2116
     18  OG        35.6680   62.2180   17.0240 O.3   398  SER398     -0.2180
     19  N         35.3380   57.4570   21.2000 N.3   400  ARG400     -0.1245
     20  CA        35.5160   56.0380   21.5010 C.3   400  ARG400      0.1563
     21  C         34.6590   55.4620   22.6280 C.2   400  ARG400      0.2260
     22  O         34.6370   55.9900   23.7380 O.2   400  ARG400     -0.2867
     23  CB        36.9920   55.7710   21.8000 C.3   400  ARG400      0.0307
     24  CG        37.9410   56.3300   20.7390 C.3   400  ARG400      0.0489
     25  CD        39.3490   55.8100   20.9380 C.3   400  ARG400      0.2205
     26  NE        39.3880   54.3530   20.8480 N.pl3 400  ARG400     -0.0865
     27  CZ        40.4210   53.6030   21.2250 C.cat 400  ARG400      0.5346
     28  NH1       41.5110   54.1730   21.7220 N.pl3 400  ARG400      0.1354
     29  NH2       40.3630   52.2820   21.1100 N.pl3 400  ARG400      0.1354
     30  N         34.3870   52.9290    6.6570 N.3   409  LEU409     -0.1245
     31  CA        34.8420   54.2700    6.3130 C.3   409  LEU409      0.1561
     32  C         34.7320   54.2860    4.7890 C.2   409  LEU409      0.2260
     33  O         35.5270   53.6400    4.0990 O.2   409  LEU409     -0.2867
     34  CB        36.2970   54.4960    6.7410 C.3   409  LEU409      0.0270
     35  CG        36.6030   54.4290    8.2430 C.3   409  LEU409      0.0019
     36  CD1       38.0870   54.7120    8.4730 C.3   409  LEU409      0.0001
     37  CD2       35.7470   55.4340    9.0020 C.3   409  LEU409      0.0001
     38  N         42.9130   59.5550    5.1810 N.3   416  LEU416     -0.1245
     39  CA        41.7590   59.6700    6.0700 C.3   416  LEU416      0.1561
     40  C         41.4820   61.1070    6.5050 C.2   416  LEU416      0.2260
     41  O         40.8600   61.3430    7.5380 O.2   416  LEU416     -0.2867
     42  CB        41.9300   58.7820    7.3080 C.3   416  LEU416      0.0270
     43  CG        41.8710   57.2670    7.0820 C.3   416  LEU416      0.0019
     44  CD1       41.8680   56.5720    8.4310 C.3   416  LEU416      0.0001
     45  CD2       40.6180   56.8890    6.2930 C.3   416  LEU416      0.0001
     46  N         36.5020   61.4260    5.3000 N.3   419  GLN419     -0.1245
     47  CA        35.8940   60.1080    5.4210 C.3   419  GLN419      0.1566
     48  C         34.4330   60.2090    5.8390 C.2   419  GLN419      0.2260
     49  O         34.0190   61.1830    6.4750 O.2   419  GLN419     -0.2867
     50  CB        36.6320   59.2840    6.4840 C.3   419  GLN419      0.0367
     51  CG        36.5300   59.8980    7.8870 C.3   419  GLN419      0.0905
     52  CD        37.1770   59.0490    8.9710 C.2   419  GLN419      0.2608
     53  OE1       38.2690   58.5080    8.7830 O.2   419  GLN419     -0.2717
     54  NE2       36.5120   58.9430   10.1200 N.am  419  GLN419     -0.0878
     55  N         33.2240   64.5930    9.0340 N.3   444  ARG444     -0.1245
     56  CA        34.4990   64.7500    8.3440 C.3   444  ARG444      0.1563
     57  C         34.4610   64.2560    6.9060 C.2   444  ARG444      0.2260
     58  O         35.5040   63.9450    6.3240 O.2   444  ARG444     -0.2867
     59  CB        35.5940   64.0040    9.0970 C.3   444  ARG444      0.0307
     60  CG        35.9550   64.6260   10.4310 C.3   444  ARG444      0.0489
     61  CD        37.0720   63.8440   11.0850 C.3   444  ARG444      0.2205
     62  NE        36.5850   62.7660   11.9390 N.pl3 444  ARG444     -0.0865
     63  CZ        37.2910   61.6750   12.2290 C.cat 444  ARG444      0.5346
     64  NH1       38.5070   61.5160   11.7160 N.pl3 444  ARG444      0.1354
     65  NH2       36.7980   60.7610   13.0580 N.pl3 444  ARG444      0.1354
     66  N         36.6740   49.6480   10.2910 N.3   510  PHE510     -0.1241
     67  CA        37.3490   50.1470   11.4850 C.3   510  PHE510      0.1605
     68  C         36.6130   49.8310   12.7750 C.2   510  PHE510      0.2264
     69  O         35.4190   49.5130   12.7730 O.2   510  PHE510     -0.2867
     70  CB        37.5500   51.6690   11.3830 C.3   510  PHE510      0.0534
     71  CG        36.3160   52.4670   11.7150 C.ar  510  PHE510     -0.0203
     72  CD1       36.2070   53.1290   12.9340 C.ar  510  PHE510     -0.0042
     73  CD2       35.2390   52.5070   10.8350 C.ar  510  PHE510     -0.0042
     74  CE1       35.0380   53.8200   13.2770 C.ar  510  PHE510     -0.0003
     75  CE2       34.0680   53.1920   11.1670 C.ar  510  PHE510     -0.0003
     76  CZ        33.9680   53.8490   12.3940 C.ar  510  PHE510     -0.0000
     77  N         36.8120   51.7220   16.5350 N.3   512  ASN512     -0.1240
     78  CA        37.3980   52.7100   17.4340 C.3   512  ASN512      0.1653
     79  C         36.9180   52.5150   18.8600 C.2   512  ASN512      0.2266
     80  O         37.0980   53.3890   19.7060 O.2   512  ASN512     -0.2867
     81  CB        37.0760   54.1370   16.9810 C.3   512  ASN512      0.1155
     82  CG        38.3220   54.9910   16.8320 C.2   512  ASN512      0.2627
     83  OD1       39.3500   54.6900   17.4290 O.2   512  ASN512     -0.2716
     84  ND2       38.2270   56.0410   16.0180 N.am  512  ASN512     -0.0877
@<TRIPOS>BOND
     1    33    32    2
     2    32    31    1
     3    38    39    1
     4    46    47    1
     5    47    48    1
     6    47    50    1
     7    48    49    2
     8    39    40    1
     9    39    42    1
    10    45    43    1
    11    31    30    1
    12    31    34    1
    13    58    57    2
    14    50    51    1
    15    40    41    2
    16    34    35    1
    17    57    56    1
    18    43    42    1
    19    43    44    1
    20    51    52    1
    21    35    36    1
    22    35    37    1
    23    56    55    1
    24    56    59    1
    25    53    52    2
    26     6     5    1
    27    52    54   am
    28    59    60    1
    29     4     3    2
    30     3     2    1
    31     5     2    1
    32     5     7    1
    33    66    67    1
    34    60    61    1
    35     2     1    1
    36    73    75   ar
    37    73    71   ar
    38    61    62    1
    39    75    76   ar
    40    70    67    1
    41    70    71    1
    42    67    68    1
    43    71    72   ar
    44    64    63    1
    45    62    63    2
    46    63    65    1
    47    76    74   ar
    48    69    68    2
    49    72    74   ar
    50    12     9    1
    51     9     8    1
    52     9    10    1
    53    10    13   am
    54    10    11    2
    55    84    82   am
    56    13    14    1
    57    77    78    1
    58    17    14    1
    59    17    18    1
    60    82    81    1
    61    82    83    2
    62    14    15    1
    63    81    78    1
    64    78    79    1
    65    15    16    2
    66    79    80    2
    67    24    25    1
    68    24    23    1
    69    26    25    1
    70    26    27    2
    71    29    27    1
    72    19    20    1
    73    27    28    1
    74    20    23    1
    75    20    21    1
    76    21    22    2
