@<TRIPOS>MOLECULE
tmp/1stcA00.pdb
 188 177 0 0 0
SMALL
GASTEIGER

@<TRIPOS>ATOM
      1  N          6.0640   29.3460   35.3100 N.3    35  LEU35      -0.1231
      2  CA         6.2940   29.5970   33.9070 C.3    35  LEU35       0.1693
      3  C          5.4110   28.7730   33.0300 C.2    35  LEU35       0.2593
      4  O          5.2710   29.0550   31.8430 O.2    35  LEU35      -0.2718
      5  CB         7.7410   29.2570   33.5470 C.3    35  LEU35       0.0284
      6  CG         8.9520   29.8540   34.2710 C.3    35  LEU35       0.0019
      7  CD1        9.9890   28.7640   34.5960 C.3    35  LEU35       0.0001
      8  CD2        9.5600   30.8940   33.3590 C.3    35  LEU35       0.0001
      9  N          4.8520   27.7210   33.6050 N.am   36  GLY36      -0.1942
     10  CA         4.0120   26.8230   32.8380 C.3    36  GLY36       0.2014
     11  C          3.0230   26.1480   33.7370 C.2    36  GLY36       0.2639
     12  O          3.2580   26.0040   34.9280 O.2    36  GLY36      -0.2714
     13  N          1.9100   25.7120   33.1660 N.am   37  THR37      -0.1950
     14  CA         0.8580   25.0760   33.9600 C.3    37  THR37       0.1897
     15  C          0.1040   23.9990   33.1780 C.2    37  THR37       0.2313
     16  O          0.1320   23.9640   31.9370 O.2    37  THR37      -0.2863
     17  CB        -0.1500   26.1590   34.4480 C.3    37  THR37       0.1794
     18  OG1       -0.8070   25.7220   35.6470 O.3    37  THR37      -0.2208
     19  CG2       -1.1790   26.4560   33.3500 C.3    37  THR37       0.0378
     20  N         -0.3540   18.0000   34.1330 N.3    40  PHE40      -0.1241
     21  CA         0.8360   17.3500   34.6560 C.3    40  PHE40       0.1605
     22  C          1.0250   17.9190   36.0520 C.2    40  PHE40       0.2264
     23  O          0.7450   17.2710   37.0690 O.2    40  PHE40      -0.2867
     24  CB         2.0640   17.6730   33.7970 C.3    40  PHE40       0.0534
     25  CG         2.2730   19.1410   33.5380 C.ar   40  PHE40      -0.0203
     26  CD1        1.4760   19.8250   32.6310 C.ar   40  PHE40      -0.0042
     27  CD2        3.3000   19.8320   34.1800 C.ar   40  PHE40      -0.0042
     28  CE1        1.6970   21.1820   32.3640 C.ar   40  PHE40      -0.0003
     29  CE2        3.5290   21.1920   33.9200 C.ar   40  PHE40      -0.0003
     30  CZ         2.7260   21.8650   33.0100 C.ar   40  PHE40      -0.0000
     31  N          5.5900   23.8930   35.8250 N.3    43  VAL43      -0.1245
     32  CA         6.9980   24.2090   35.6960 C.3    43  VAL43       0.1561
     33  C          7.2260   25.5270   36.4580 C.2    43  VAL43       0.2260
     34  O          6.3910   26.4220   36.4240 O.2    43  VAL43      -0.2867
     35  CB         7.3590   24.3740   34.2280 C.3    43  VAL43       0.0252
     36  CG1        8.8060   24.8500   34.0840 C.3    43  VAL43       0.0019
     37  CG2        7.1570   23.0690   33.5300 C.3    43  VAL43       0.0019
     38  N         14.6760   25.4950   35.7220 N.3    56  ALA56      -0.1245
     39  CA        13.2440   25.3370   35.4970 C.3    56  ALA56       0.1562
     40  C         12.8030   24.0580   36.2070 C.2    56  ALA56       0.2260
     41  O         13.1070   22.9760   35.7220 O.2    56  ALA56      -0.2867
     42  CB        12.9630   25.2000   34.0360 C.3    56  ALA56       0.0290
     43  N         10.0170   21.3320   37.2590 N.3    58  LYS58      -0.1245
     44  CA         8.6680   20.8170   36.9720 C.3    58  LYS58       0.1561
     45  C          8.1420   20.0170   38.1680 C.2    58  LYS58       0.2260
     46  O          8.6970   18.9870   38.5170 O.2    58  LYS58      -0.2867
     47  CB         8.6770   19.9200   35.7470 C.3    58  LYS58       0.0271
     48  CG         7.4120   19.1370   35.6070 C.3    58  LYS58       0.0035
     49  CD         7.5750   18.0700   34.5700 C.3    58  LYS58       0.0206
     50  CE         6.2930   17.8590   33.8540 C.3    58  LYS58       0.1093
     51  NZ         6.6000   17.7600   32.4130 N.3    58  LYS58      -0.1314
     52  N          9.0390    9.9390   30.9730 N.3    77  GLU77      -0.1245
     53  CA         9.6110   11.2250   30.5420 C.3    77  GLU77       0.1567
     54  C         10.8100   11.6260   31.3850 C.2    77  GLU77       0.2260
     55  O         11.7350   12.2440   30.8770 O.2    77  GLU77      -0.2867
     56  CB         8.5530   12.3490   30.5680 C.3    77  GLU77       0.0388
     57  CG         8.8040   13.4640   31.5960 C.3    77  GLU77       0.1160
     58  CD         8.7440   14.8980   31.0220 C.2    77  GLU77       0.3649
     59  OE1        9.3970   15.1970   29.9850 O.co2  77  GLU77      -0.2457
     60  OE2        8.0500   15.7370   31.6350 O.co2  77  GLU77      -0.2457
     61  N         17.2070   19.7920   26.4640 N.3    90  VAL90      -0.1245
     62  CA        17.2740   20.3590   27.8040 C.3    90  VAL90       0.1561
     63  C         17.7190   19.3330   28.8450 C.2    90  VAL90       0.2260
     64  O         17.0460   18.3210   29.0570 O.2    90  VAL90      -0.2867
     65  CB        15.9160   20.9400   28.1770 C.3    90  VAL90       0.0252
     66  CG1       15.8710   21.3220   29.6340 C.3    90  VAL90       0.0019
     67  CG2       15.6560   22.1210   27.3040 C.3    90  VAL90       0.0019
     68  N         15.3400   21.0990   35.4800 N.3   106  MET106     -0.1230
     69  CA        16.0620   21.1660   34.2100 C.3   106  MET106      0.1702
     70  C         16.8520   22.4610   34.0080 C.2   106  MET106      0.2592
     71  O         16.8200   23.3580   34.8440 O.2   106  MET106     -0.2718
     72  CB        15.0700   21.0080   33.0480 C.3   106  MET106      0.0401
     73  CG        14.3790   19.6450   33.0250 C.3   106  MET106      0.0596
     74  SD        12.6290   19.6050   32.6000 S.3   106  MET106     -0.1393
     75  CE        11.8670   20.2190   34.1470 C.3   106  MET106      0.0692
     76  N         17.5780   22.5500   32.9050 N.am  107  GLU107     -0.1966
     77  CA        18.3000   23.7660   32.6050 C.3   107  GLU107      0.1733
     78  C         17.2440   24.7700   32.1460 C.2   107  GLU107      0.2616
     79  O         16.4700   24.4940   31.2210 O.2   107  GLU107     -0.2715
     80  CB        19.2950   23.5890   31.4550 C.3   107  GLU107      0.0429
     81  CG        19.7030   22.1850   31.1400 C.3   107  GLU107      0.1163
     82  CD        20.7220   22.1580   30.0160 C.2   107  GLU107      0.3649
     83  OE1       21.9150   22.4480   30.3090 O.co2 107  GLU107     -0.2457
     84  OE2       20.3350   21.8620   28.8500 O.co2 107  GLU107     -0.2457
     85  N         17.2460   25.9390   32.7710 N.am  108  TYR108     -0.1960
     86  CA        16.3200   26.9910   32.4380 C.3   108  TYR108      0.1771
     87  C         16.6810   27.6910   31.1070 C.2   108  TYR108      0.2619
     88  O         17.7730   28.2300   30.9510 O.2   108  TYR108     -0.2715
     89  CB        16.2990   27.9710   33.6130 C.3   108  TYR108      0.0574
     90  CG        15.5620   29.2570   33.3320 C.ar  108  TYR108     -0.0198
     91  CD1       14.3270   29.2460   32.6650 C.ar  108  TYR108     -0.0009
     92  CD2       16.1350   30.4930   33.6490 C.ar  108  TYR108     -0.0009
     93  CE1       13.6820   30.4320   32.3150 C.ar  108  TYR108      0.0417
     94  CE2       15.4940   31.6920   33.3000 C.ar  108  TYR108      0.0417
     95  CZ        14.2660   31.6530   32.6340 C.ar  108  TYR108      0.1957
     96  OH        13.6130   32.8270   32.3190 O.3   108  TYR108     -0.2866
     97  N         15.7710   27.6470   30.1360 N.am  109  VAL109     -0.1977
     98  CA        15.9590   28.2980   28.8370 C.3   109  VAL109      0.1596
     99  C         15.1460   29.5840   28.9910 C.2   109  VAL109      0.2287
    100  O         13.9190   29.5510   28.9510 O.2   109  VAL109     -0.2864
    101  CB        15.3480   27.4850   27.7330 C.3   109  VAL109      0.0276
    102  CG1       15.8770   27.9090   26.4340 C.3   109  VAL109      0.0022
    103  CG2       15.6240   26.0470   27.9570 C.3   109  VAL109      0.0022
    104  N         12.1580   31.6710   26.3950 N.3   112  GLY112     -0.1210
    105  CA        10.7920   31.2010   26.2130 C.3   112  GLY112      0.1956
    106  C         10.3970   30.5390   24.8840 C.2   112  GLY112      0.2611
    107  O         11.2350   30.2530   24.0280 O.2   112  GLY112     -0.2717
    108  N          9.0920   30.3150   24.7150 N.am  113  GLU113     -0.1979
    109  CA         8.5250   29.6590   23.5350 C.3   113  GLU113      0.1602
    110  C          8.7700   30.3290   22.2230 C.2   113  GLU113      0.2287
    111  O          8.7230   31.5530   22.1410 O.2   113  GLU113     -0.2864
    112  CB         7.0270   29.5430   23.6710 C.3   113  GLU113      0.0415
    113  CG         6.5450   28.9800   24.9710 C.3   113  GLU113      0.1163
    114  CD         5.0510   28.7570   24.9160 C.2   113  GLU113      0.3649
    115  OE1        4.4950   28.9450   23.8110 O.co2 113  GLU113     -0.2457
    116  OE2        4.4460   28.4100   25.9610 O.co2 113  GLU113     -0.2457
    117  N          5.8980   21.1720   18.4350 N.3   154  LYS154     -0.1245
    118  CA         5.0580   22.3180   18.1110 C.3   154  LYS154      0.1561
    119  C          5.7250   23.5350   18.7220 C.2   154  LYS154      0.2260
    120  O          6.4280   23.4120   19.7360 O.2   154  LYS154     -0.2867
    121  CB         3.6220   22.1480   18.6370 C.3   154  LYS154      0.0271
    122  CG         3.4720   22.0730   20.1400 C.3   154  LYS154      0.0035
    123  CD         2.0000   22.0540   20.5250 C.3   154  LYS154      0.0206
    124  CE         1.8380   21.3230   21.8160 C.3   154  LYS154      0.1093
    125  NZ         1.0250   22.0780   22.7410 N.3   154  LYS154     -0.1314
    126  N          4.9910   25.9500   20.7030 N.3   156  GLU156     -0.1231
    127  CA         4.8220   26.1330   22.1530 C.3   156  GLU156      0.1699
    128  C          5.6890   25.1780   22.9780 C.2   156  GLU156      0.2592
    129  O          5.8610   25.3310   24.2070 O.2   156  GLU156     -0.2718
    130  CB         3.3420   25.9310   22.5300 C.3   156  GLU156      0.0402
    131  CG         2.3600   26.7970   21.7590 C.3   156  GLU156      0.1161
    132  CD         1.8050   26.1090   20.5260 C.2   156  GLU156      0.3649
    133  OE1        2.6070   25.6970   19.6660 O.co2 156  GLU156     -0.2457
    134  OE2        0.5610   25.9830   20.4060 O.co2 156  GLU156     -0.2457
    135  N          6.2130   24.1740   22.2900 N.am  157  ASN157     -0.1974
    136  CA         7.0690   23.1640   22.9170 C.3   157  ASN157      0.1688
    137  C          8.5710   23.4250   22.6150 C.2   157  ASN157      0.2292
    138  O          9.4480   22.7120   23.1080 O.2   157  ASN157     -0.2864
    139  CB         6.6790   21.7840   22.3920 C.3   157  ASN157      0.1181
    140  CG         5.6910   21.0740   23.2880 C.2   157  ASN157      0.2629
    141  OD1        5.5430   21.3910   24.4690 O.2   157  ASN157     -0.2716
    142  ND2        5.0100   20.0920   22.7230 N.am  157  ASN157     -0.0877
    143  N         11.7590   26.0330   22.8550 N.3   159  LEU159     -0.1245
    144  CA        12.2780   27.1910   23.5900 C.3   159  LEU159      0.1561
    145  C         13.5290   27.7170   22.8660 C.2   159  LEU159      0.2260
    146  O         14.1400   27.0160   22.0450 O.2   159  LEU159     -0.2867
    147  CB        12.6050   26.8140   25.0480 C.3   159  LEU159      0.0270
    148  CG        11.3800   26.2270   25.7680 C.3   159  LEU159      0.0019
    149  CD1       11.7370   25.5900   27.0880 C.3   159  LEU159      0.0001
    150  CD2       10.3560   27.3430   26.0110 C.3   159  LEU159      0.0001
    151  N         12.5080   20.0220   25.3420 N.3   169  THR169     -0.1203
    152  CA        12.5770   19.7230   26.7710 C.3   169  THR169      0.1994
    153  C         11.4510   18.8500   27.3110 C.2   169  THR169      0.2617
    154  O         11.6030   18.2420   28.3760 O.2   169  THR169     -0.2717
    155  CB        12.5460   21.0440   27.5950 C.3   169  THR169      0.1784
    156  OG1       12.6870   20.7620   29.0010 O.3   169  THR169     -0.2211
    157  CG2       11.2040   21.7910   27.3390 C.3   169  THR169      0.0376
    158  N         10.3240   18.8030   26.6010 N.am  170  ASP170     -0.1973
    159  CA         9.1660   18.0330   27.0670 C.3   170  ASP170      0.1709
    160  C          9.0540   16.6680   26.4080 C.2   170  ASP170      0.2293
    161  O          8.7980   16.5820   25.1990 O.2   170  ASP170     -0.2864
    162  CB         7.8950   18.8230   26.8070 C.3   170  ASP170      0.1436
    163  CG         6.6830   18.0020   26.9980 C.2   170  ASP170      0.3671
    164  OD1        6.4110   17.6740   28.1610 O.co2 170  ASP170     -0.2456
    165  OD2        6.0200   17.6800   25.9860 O.co2 170  ASP170     -0.2456
    166  N          7.1920   37.2860   30.1520 N.3   312  PHE312     -0.1241
    167  CA         6.5010   36.0390   30.4690 C.3   312  PHE312      0.1605
    168  C          5.1000   36.2510   31.0810 C.2   312  PHE312      0.2264
    169  O          4.9540   37.0230   32.0380 O.2   312  PHE312     -0.2867
    170  CB         7.3450   35.2320   31.4870 C.3   312  PHE312      0.0534
    171  CG         8.6900   34.7450   30.9650 C.ar  312  PHE312     -0.0203
    172  CD1        9.0450   34.8570   29.6150 C.ar  312  PHE312     -0.0042
    173  CD2        9.5950   34.1340   31.8360 C.ar  312  PHE312     -0.0042
    174  CE1       10.2740   34.3650   29.1440 C.ar  312  PHE312     -0.0003
    175  CE2       10.8170   33.6420   31.3840 C.ar  312  PHE312     -0.0003
    176  CZ        11.1540   33.7560   30.0340 C.ar  312  PHE312     -0.0000
    177  N          0.7750   33.6400   36.1920 N.3   315  TYR315     -0.1241
    178  CA        -0.0930   32.5270   36.5620 C.3   315  TYR315      0.1605
    179  C         -0.3360   32.6470   38.0500 C.2   315  TYR315      0.2264
    180  O          0.4270   33.2990   38.7490 O.2   315  TYR315     -0.2867
    181  CB         0.5620   31.1590   36.2590 C.3   315  TYR315      0.0534
    182  CG         0.8620   30.8720   34.7880 C.ar  315  TYR315     -0.0201
    183  CD1        2.0570   31.2990   34.2260 C.ar  315  TYR315     -0.0009
    184  CD2       -0.0420   30.1750   33.9650 C.ar  315  TYR315     -0.0009
    185  CE1        2.3670   31.0640   32.8960 C.ar  315  TYR315      0.0417
    186  CE2        0.2660   29.9290   32.6190 C.ar  315  TYR315      0.0417
    187  CZ         1.4900   30.3900   32.0900 C.ar  315  TYR315      0.1957
    188  OH         1.8660   30.2180   30.7490 O.3   315  TYR315     -0.2866
@<TRIPOS>BOND
     1   118   117    1
     2   118   121    1
     3   118   119    1
     4   121   122    1
     5   119   120    2
     6   133   132   ar
     7   122   123    1
     8   134   132   ar
     9   123   124    1
    10   132   131    1
    11   126   127    1
    12   131   130    1
    13   124   125    1
    14   146   145    2
    15   111   110    2
    16   127   130    1
    17   127   128    1
    18   110   109    1
    19   135   136    1
    20   135   128   am
    21   139   136    1
    22   139   140    1
    23   137   136    1
    24   137   138    2
    25   142   140   am
    26   143   144    1
    27   145   144    1
    28   128   129    2
    29   140   141    2
    30   109   112    1
    31   109   108    1
    32   144   147    1
    33   112   113    1
    34   115   114   ar
    35   107   106    2
    36   108   106   am
    37   106   105    1
    38   114   113    1
    39   114   116   ar
    40   147   148    1
    41   161   160    2
    42   151   152    1
    43   148   150    1
    44   148   149    1
    45   165   163   ar
    46   105   104    1
    47   160   159    1
    48   102   101    1
    49    61    62    1
    50   158   159    1
    51   158   153   am
    52   152   153    1
    53   152   155    1
    54   162   163    1
    55   162   159    1
    56   163   164   ar
    57    67    65    1
    58   153   154    2
    59   157   155    1
    60   155   156    1
    61   101   103    1
    62   101    98    1
    63    62    65    1
    64    62    63    1
    65    65    66    1
    66    98    99    1
    67    98    97    1
    68    63    64    2
    69    84    82   ar
    70   100    99    2
    71   174   172   ar
    72   174   176   ar
    73   172   171   ar
    74    59    58   ar
    75    82    83   ar
    76    82    81    1
    77   176   175   ar
    78    97    87   am
    79   166   167    1
    80   167   168    1
    81   167   170    1
    82    53    56    1
    83    53    52    1
    84    53    54    1
    85    56    57    1
    86   188   187    1
    87    55    54    2
    88    88    87    2
    89   171   170    1
    90   171   173   ar
    91    58    57    1
    92    58    60   ar
    93   168   169    2
    94    87    86    1
    95    81    80    1
    96    79    78    2
    97   175   173   ar
    98    80    77    1
    99     4     3    2
   100    16    15    2
   101   187   186   ar
   102   187   185   ar
   103    78    77    1
   104    78    85   am
   105    93    95   ar
   106    93    91   ar
   107    96    95    1
   108    28    26   ar
   109    28    30   ar
   110    51    50    1
   111    86    85    1
   112    86    89    1
   113    74    73    1
   114    74    75    1
   115    77    76    1
   116   186   184   ar
   117    26    25   ar
   118    95    94   ar
   119    91    90   ar
   120    10     9    1
   121    10    11    1
   122   185   183   ar
   123    76    70   am
   124    30    29   ar
   125    73    72    1
   126     3     9   am
   127     3     2    1
   128    72    69    1
   129    13    11   am
   130    13    14    1
   131    15    14    1
   132    94    92   ar
   133    90    89    1
   134    90    92   ar
   135    19    17    1
   136     8     6    1
   137    37    35    1
   138    25    24    1
   139    25    27   ar
   140     5     2    1
   141     5     6    1
   142    11    12    2
   143    24    21    1
   144    50    49    1
   145     2     1    1
   146    29    27   ar
   147    14    17    1
   148   184   182   ar
   149    70    69    1
   150    70    71    2
   151    42    39    1
   152    36    35    1
   153    20    21    1
   154    69    68    1
   155   183   182   ar
   156    35    32    1
   157     6     7    1
   158    17    18    1
   159    49    48    1
   160    21    22    1
   161   182   181    1
   162    39    38    1
   163    39    40    1
   164    48    47    1
   165    32    31    1
   166    32    33    1
   167    41    40    2
   168    47    44    1
   169    22    23    2
   170   177   178    1
   171   181   178    1
   172    34    33    2
   173   178   179    1
   174    44    43    1
   175    44    45    1
   176   179   180    2
   177    45    46    2
