@<TRIPOS>MOLECULE
tmp/1stoA00.pdb
 144 138 0 0 0
SMALL
GASTEIGER

@<TRIPOS>ATOM
      1  N         11.1770   34.6750   21.0030 N.3    25  LEU25      -0.1231
      2  CA        12.0050   33.6140   20.6070 C.3    25  LEU25       0.1693
      3  C         11.2440   32.3150   20.3010 C.2    25  LEU25       0.2592
      4  O         10.0060   32.1960   20.4480 O.2    25  LEU25      -0.2718
      5  CB        13.2030   33.5250   21.5480 C.3    25  LEU25       0.0284
      6  CG        13.5130   34.9180   22.1060 C.3    25  LEU25       0.0019
      7  CD1       14.3750   34.7840   23.3010 C.3    25  LEU25       0.0001
      8  CD2       14.2820   35.7500   21.0750 C.3    25  LEU25       0.0001
      9  N         12.0090   31.4030   19.7140 N.am   26  LYS26      -0.1966
     10  CA        11.5720   30.0810   19.3140 C.3    26  LYS26       0.1728
     11  C         11.2260   29.2300   20.5270 C.2    26  LYS26       0.2616
     12  O         10.6880   28.1030   20.4230 O.2    26  LYS26      -0.2715
     13  CB        12.7250   29.3980   18.6110 C.3    26  LYS26       0.0311
     14  CG        12.2930   28.3480   17.5700 C.3    26  LYS26       0.0038
     15  CD        13.4080   27.9480   16.5470 C.3    26  LYS26       0.0206
     16  CE        13.0670   28.1800   15.0480 C.3    26  LYS26       0.1093
     17  NZ        14.0750   27.6150   14.0970 N.3    26  LYS26      -0.1314
     18  N         11.6340   29.7640   21.6740 N.am   27  SER27      -0.1950
     19  CA        11.4180   29.1260   22.9360 C.3    27  SER27       0.1924
     20  C         10.0850   29.5170   23.5030 C.2    27  SER27       0.2314
     21  O          9.5100   28.8150   24.3250 O.2    27  SER27      -0.2863
     22  CB        12.4920   29.5810   23.8850 C.3    27  SER27       0.2116
     23  OG        12.1670   30.8910   24.2810 O.3    27  SER27      -0.2180
     24  N         17.0190   40.7640   19.0440 N.3    34  PHE34      -0.1227
     25  CA        17.0840   39.6440   18.1110 C.3    34  PHE34       0.1736
     26  C         18.2780   39.8230   17.2460 C.2    34  PHE34       0.2595
     27  O         18.6070   40.9440   16.8490 O.2    34  PHE34      -0.2718
     28  CB        15.8160   39.5980   17.2140 C.3    34  PHE34       0.0547
     29  CG        15.5090   38.1940   16.6640 C.ar   34  PHE34      -0.0202
     30  CD1       14.8730   37.2220   17.4300 C.ar   34  PHE34      -0.0042
     31  CD2       15.7950   37.8570   15.3410 C.ar   34  PHE34      -0.0042
     32  CE1       14.6760   35.9230   16.9580 C.ar   34  PHE34      -0.0003
     33  CE2       15.6310   36.5580   14.8660 C.ar   34  PHE34      -0.0003
     34  CZ        15.0310   35.5870   15.6580 C.ar   34  PHE34      -0.0000
     35  N         18.9210   38.7250   16.9570 N.am   35  PHE35      -0.1962
     36  CA        20.0380   38.7190   16.0210 C.3    35  PHE35       0.1771
     37  C         19.7030   37.8420   14.8190 C.2    35  PHE35       0.2620
     38  O         19.2420   36.7010   14.9720 O.2    35  PHE35      -0.2715
     39  CB        21.2950   38.1930   16.7070 C.3    35  PHE35       0.0574
     40  CG        22.5170   38.1420   15.8050 C.ar   35  PHE35      -0.0200
     41  CD1       22.7930   37.0150   15.0320 C.ar   35  PHE35      -0.0042
     42  CD2       23.4660   39.1650   15.8660 C.ar   35  PHE35      -0.0042
     43  CE1       23.9890   36.9370   14.3100 C.ar   35  PHE35      -0.0003
     44  CE2       24.5960   39.1430   15.0490 C.ar   35  PHE35      -0.0003
     45  CZ        24.8900   38.0020   14.3030 C.ar   35  PHE35      -0.0000
     46  N         19.8280   38.3690   13.6150 N.am   36  ASN36      -0.1958
     47  CA        19.3940   37.5370   12.4810 C.3    36  ASN36       0.1819
     48  C         20.3490   37.5300   11.2980 C.2    36  ASN36       0.2621
     49  O         20.0680   38.1100   10.2540 O.2    36  ASN36      -0.2715
     50  CB        17.9390   37.8210   12.1250 C.3    36  ASN36       0.1195
     51  CG        17.4460   37.0490   10.9320 C.2    36  ASN36       0.2630
     52  OD1       18.1360   36.1350   10.4120 O.2    36  ASN36      -0.2716
     53  ND2       16.2270   37.3990   10.4880 N.am   36  ASN36      -0.0877
     54  N         21.4630   36.8300   11.4960 N.am   37  ALA37      -0.1977
     55  CA        22.4910   36.6470   10.5010 C.3    37  ALA37       0.1597
     56  C         21.9550   36.4880    9.0590 C.2    37  ALA37       0.2287
     57  O         22.6800   36.7380    8.0960 O.2    37  ALA37      -0.2864
     58  CB        23.3930   35.4810   10.8810 C.3    37  ALA37       0.0319
     59  N         22.8940   26.9020    5.7620 N.3    73  LYS73      -0.1245
     60  CA        23.1640   28.2020    6.4140 C.3    73  LYS73       0.1561
     61  C         24.6420   28.3100    6.8340 C.2    73  LYS73       0.2260
     62  O         25.0790   29.3330    7.3800 O.2    73  LYS73      -0.2867
     63  CB        22.2900   28.3580    7.6590 C.3    73  LYS73       0.0271
     64  CG        22.1290   27.0520    8.4380 C.3    73  LYS73       0.0035
     65  CD        20.8890   27.0380    9.3320 C.3    73  LYS73       0.0206
     66  CE        21.1590   26.4520   10.7190 C.3    73  LYS73       0.1093
     67  NZ        20.1210   25.5070   11.1560 N.3    73  LYS73      -0.1314
     68  N         29.0940   28.3750   12.2040 N.3   119  ASP119     -0.1225
     69  CA        27.6870   28.5790   12.0760 C.3   119  ASP119      0.1805
     70  C         27.2700   29.9710   12.4480 C.2   119  ASP119      0.2598
     71  O         28.0860   30.8860   12.4810 O.2   119  ASP119     -0.2718
     72  CB        26.8430   27.5260   12.7910 C.3   119  ASP119      0.1424
     73  CG        25.5320   27.4270   12.0570 C.2   119  ASP119      0.3668
     74  OD1       25.3120   28.1460   11.0860 O.co2 119  ASP119     -0.2456
     75  OD2       24.6710   26.5160   12.5400 O.co2 119  ASP119     -0.2456
     76  N         25.9900   30.1730   12.6600 N.am  120  ASP120     -0.1960
     77  CA        25.5700   31.5270   12.9110 C.3   120  ASP120      0.1840
     78  C         25.1410   31.8100   14.3440 C.2   120  ASP120      0.2622
     79  O         25.5580   32.7870   14.9260 O.2   120  ASP120     -0.2715
     80  CB        24.4780   31.9520   11.9340 C.3   120  ASP120      0.1450
     81  CG        23.3370   31.0000   12.0010 C.2   120  ASP120      0.3671
     82  OD1       23.7030   29.7930   12.4200 O.co2 120  ASP120     -0.2456
     83  OD2       22.1920   31.3350   11.7980 O.co2 120  ASP120     -0.2456
     84  N         24.3030   30.9570   14.9090 N.am  121  VAL121     -0.1963
     85  CA        23.7810   31.1720   16.2460 C.3   121  VAL121      0.1727
     86  C         23.1340   29.9060   16.7890 C.2   121  VAL121      0.2616
     87  O         22.2140   29.3890   16.1910 O.2   121  VAL121     -0.2715
     88  CB        22.7060   32.2230   16.1440 C.3   121  VAL121      0.0290
     89  CG1       21.5400   31.8920   17.0530 C.3   121  VAL121      0.0023
     90  CG2       23.2470   33.5620   16.5520 C.3   121  VAL121      0.0023
     91  N         23.5880   29.3640   17.8940 N.am  122  ILE122     -0.1963
     92  CA        22.8930   28.1860   18.3760 C.3   122  ILE122      0.1727
     93  C         21.8390   28.5990   19.3510 C.2   122  ILE122      0.2617
     94  O         22.1160   29.2950   20.3310 O.2   122  ILE122     -0.2715
     95  CB        23.7500   27.1060   19.0710 C.3   122  ILE122      0.0290
     96  CG1       24.8980   26.6450   18.1960 C.3   122  ILE122      0.0022
     97  CG2       22.8570   25.9020   19.4350 C.3   122  ILE122      0.0023
     98  CD1       26.2030   27.3680   18.4820 C.3   122  ILE122      0.0001
     99  N         20.6600   28.0830   19.1560 N.am  123  THR123     -0.1937
    100  CA        19.6330   28.2870   20.1180 C.3   123  THR123      0.2028
    101  C         19.1410   26.9560   20.6230 C.2   123  THR123      0.2642
    102  O         19.1480   26.6260   21.8090 O.2   123  THR123     -0.2714
    103  CB        18.5030   29.1640   19.5980 C.3   123  THR123      0.1808
    104  OG1       17.8130   28.4950   18.5640 O.3   123  THR123     -0.2208
    105  CG2       19.1050   30.4970   19.1380 C.3   123  THR123      0.0379
    106  N         18.8180   26.1110   19.7260 N.am  124  ALA124     -0.1977
    107  CA        18.3300   24.9070   20.2420 C.3   124  ALA124      0.1597
    108  C         19.3020   23.7370   20.1750 C.2   124  ALA124      0.2287
    109  O         18.8740   22.7010   19.6110 O.2   124  ALA124     -0.2864
    110  CB        17.0300   24.5900   19.5370 C.3   124  ALA124      0.0319
    111  N         21.2910   22.2880   18.5810 N.3   126  THR126     -0.1218
    112  CA        20.7280   21.7410   17.3510 C.3   126  THR126      0.1862
    113  C         21.5960   20.8770   16.3980 C.2   126  THR126      0.2287
    114  O         22.3400   19.9920   16.8530 O.2   126  THR126     -0.2866
    115  CB        20.1510   22.9520   16.6100 C.3   126  THR126      0.1770
    116  OG1       20.5520   24.1090   17.3410 O.3   126  THR126     -0.2211
    117  CG2       18.6190   22.8520   16.4940 C.3   126  THR126      0.0375
    118  N         24.0880   20.6420   15.0360 N.3   128  ILE128     -0.1245
    119  CA        25.4150   20.2890   15.5490 C.3   128  ILE128      0.1561
    120  C         25.4140   18.7810   15.8140 C.2   128  ILE128      0.2260
    121  O         26.3240   18.0430   15.4330 O.2   128  ILE128     -0.2867
    122  CB        25.7090   21.0480   16.8720 C.3   128  ILE128      0.0252
    123  CG1       25.5070   22.5610   16.7520 C.3   128  ILE128      0.0019
    124  CG2       27.1030   20.7340   17.4340 C.3   128  ILE128      0.0019
    125  CD1       24.7050   23.1580   17.9210 C.3   128  ILE128      0.0001
    126  N         26.9730   34.9710   17.9650 N.3   149  LEU149     -0.1245
    127  CA        26.3340   35.4950   19.1090 C.3   149  LEU149      0.1561
    128  C         25.8950   34.4130   20.0100 C.2   149  LEU149      0.2260
    129  O         24.9710   33.6390   19.6360 O.2   149  LEU149     -0.2867
    130  CB        25.0240   36.1670   18.6890 C.3   149  LEU149      0.0270
    131  CG        24.5500   37.3820   19.5200 C.3   149  LEU149      0.0019
    132  CD1       23.0390   37.4430   19.4960 C.3   149  LEU149      0.0001
    133  CD2       25.0080   37.3990   20.9710 C.3   149  LEU149      0.0001
    134  N         23.8660   34.2350   23.1850 N.3   151  ARG151     -0.1245
    135  CA        22.7100   34.9400   23.7350 C.3   151  ARG151      0.1563
    136  C         22.7500   34.8890   25.2720 C.2   151  ARG151      0.2260
    137  O         22.0480   35.6110   26.0120 O.2   151  ARG151     -0.2867
    138  CB        21.4370   34.3330   23.1490 C.3   151  ARG151      0.0307
    139  CG        20.8600   35.0970   21.9500 C.3   151  ARG151      0.0489
    140  CD        19.5450   34.4860   21.4180 C.3   151  ARG151      0.2205
    141  NE        18.3920   34.9770   22.1380 N.pl3 151  ARG151     -0.0865
    142  CZ        18.0600   36.2080   22.0530 C.cat 151  ARG151      0.5346
    143  NH1       18.7750   37.0180   21.3130 N.pl3 151  ARG151      0.1354
    144  NH2       17.1120   36.6600   22.8340 N.pl3 151  ARG151      0.1354
@<TRIPOS>BOND
     1    59    60    1
     2    60    61    1
     3    60    63    1
     4    61    62    2
     5    63    64    1
     6    57    56    2
     7    64    65    1
     8    56    55    1
     9    65    66    1
    10    49    48    2
    11    52    51    2
    12    53    51   am
    13    55    58    1
    14    55    54    1
    15    66    67    1
    16    51    50    1
    17    74    73   ar
    18    48    54   am
    19    48    47    1
    20    83    81   ar
    21    80    81    1
    22    80    77    1
    23    81    82   ar
    24    73    75   ar
    25    73    72    1
    26    69    68    1
    27    69    70    1
    28    69    72    1
    29    50    47    1
    30    70    71    2
    31    70    76   am
    32    47    46    1
    33    76    77    1
    34    77    78    1
    35    46    37   am
    36    17    16    1
    37    45    43   ar
    38    45    44   ar
    39    43    41   ar
    40    78    84   am
    41    78    79    2
    42    37    38    2
    43    37    36    1
    44    33    31   ar
    45    33    34   ar
    46    84    85    1
    47    41    40   ar
    48   118   119    1
    49    16    15    1
    50    44    42   ar
    51    31    29   ar
    52   121   120    2
    53   119   120    1
    54   119   122    1
    55    34    32   ar
    56    40    42   ar
    57    40    39    1
    58    36    39    1
    59    36    35    1
    60    88    85    1
    61    88    90    1
    62    88    89    1
    63    87    86    2
    64    85    86    1
    65   113   114    2
    66   113   112    1
    67   117   115    1
    68    15    14    1
    69   115   116    1
    70   115   112    1
    71    29    28    1
    72    29    30   ar
    73   123   122    1
    74   123   125    1
    75    86    91   am
    76    27    26    2
    77   122   124    1
    78    35    26   am
    79    32    30   ar
    80    28    25    1
    81    26    25    1
    82   112   111    1
    83    14    13    1
    84    91    92    1
    85   126   127    1
    86    25    24    1
    87    96    98    1
    88    96    95    1
    89    92    95    1
    90    92    93    1
    91   104   103    1
    92    13    10    1
    93   130   127    1
    94   130   131    1
    95    95    97    1
    96   127   128    1
    97   105   103    1
    98    99    93   am
    99    99   100    1
   100    10     9    1
   101    10    11    1
   102    93    94    2
   103   132   131    1
   104   131   133    1
   105   110   107    1
   106   103   100    1
   107   109   108    2
   108   129   128    2
   109     9     3   am
   110   106   107    1
   111   106   101   am
   112   100   101    1
   113   108   107    1
   114     3     4    2
   115     3     2    1
   116    12    11    2
   117    11    18   am
   118     2     1    1
   119     2     5    1
   120   101   102    2
   121     8     6    1
   122   143   142    1
   123   140   139    1
   124   140   141    1
   125     5     6    1
   126    18    19    1
   127   139   138    1
   128   142   141    2
   129   142   144    1
   130     6     7    1
   131    19    20    1
   132    19    22    1
   133   138   135    1
   134   134   135    1
   135    20    21    2
   136   135   136    1
   137    22    23    1
   138   136   137    2
