@<TRIPOS>MOLECULE
tmp/1strA00.pdb
 163 154 0 0 0
SMALL
GASTEIGER

@<TRIPOS>ATOM
      1  N         43.0530   12.2040   -0.3920 N.3    11  ASN11      -0.1240
      2  CA        42.7150   10.8050   -0.5860 C.3    11  ASN11       0.1653
      3  C         43.5820   10.1770   -1.6550 C.2    11  ASN11       0.2266
      4  O         44.3720   10.8760   -2.3120 O.2    11  ASN11      -0.2867
      5  CB        41.2030   10.7000   -0.9120 C.3    11  ASN11       0.1155
      6  CG        40.6980   10.9810   -2.3370 C.2    11  ASN11       0.2627
      7  OD1       41.4370   11.3810   -3.2440 O.2    11  ASN11      -0.2716
      8  ND2       39.4170   10.7730   -2.5970 N.am   11  ASN11      -0.0877
      9  N         43.0990    9.4300   -4.7200 N.3    13  LEU13      -0.1245
     10  CA        42.9660    9.9370   -6.0610 C.3    13  LEU13       0.1561
     11  C         43.4870   11.3620   -6.1250 C.2    13  LEU13       0.2260
     12  O         43.3550   11.9430   -7.2090 O.2    13  LEU13      -0.2867
     13  CB        41.4690    9.8530   -6.5100 C.3    13  LEU13       0.0270
     14  CG        40.8550    8.4000   -6.5330 C.3    13  LEU13       0.0019
     15  CD1       39.5510    8.2550   -7.2340 C.3    13  LEU13       0.0001
     16  CD2       41.7260    7.5480   -7.4300 C.3    13  LEU13       0.0001
     17  N         42.3590   14.1320   -4.3100 N.3    15  SER15      -0.1217
     18  CA        41.3900   15.1470   -3.9310 C.3    15  SER15       0.1889
     19  C         41.7960   15.6650   -2.4930 C.2    15  SER15       0.2288
     20  O         42.3690   14.9350   -1.6590 O.2    15  SER15      -0.2866
     21  CB        39.9480   14.5040   -3.9560 C.3    15  SER15       0.2089
     22  OG        39.5800   13.8940   -5.2230 O.3    15  SER15      -0.2183
     23  N         36.0150   20.9370    0.0940 N.3    31  TYR31      -0.1241
     24  CA        36.4350   19.7740   -0.6850 C.3    31  TYR31       0.1605
     25  C         36.8770   20.2230   -2.0850 C.2    31  TYR31       0.2264
     26  O         36.1780   21.0250   -2.7340 O.2    31  TYR31      -0.2867
     27  CB        35.2700   18.7510   -0.8360 C.3    31  TYR31       0.0534
     28  CG        35.7820   17.3570   -1.1630 C.ar   31  TYR31      -0.0201
     29  CD1       36.0190   16.9690   -2.5010 C.ar   31  TYR31      -0.0009
     30  CD2       36.0380   16.4590   -0.1020 C.ar   31  TYR31      -0.0009
     31  CE1       36.5040   15.6820   -2.7790 C.ar   31  TYR31       0.0417
     32  CE2       36.5320   15.1770   -0.3910 C.ar   31  TYR31       0.0417
     33  CZ        36.7510   14.8040   -1.7200 C.ar   31  TYR31       0.1957
     34  OH        37.1940   13.5370   -2.0170 O.3    31  TYR31      -0.2866
     35  N         38.9670   18.5500   -5.9660 N.3    33  SER33      -0.1202
     36  CA        39.5920   17.4100   -6.6730 C.3    33  SER33       0.2020
     37  C         41.0620   17.7600   -7.0440 C.2    33  SER33       0.2619
     38  O         41.4700   18.9060   -6.7830 O.2    33  SER33      -0.2717
     39  CB        38.8070   17.0670   -7.9680 C.3    33  SER33       0.2103
     40  OG        38.0280   18.1370   -8.5100 O.3    33  SER33      -0.2182
     41  N         41.9060   16.8970   -7.6740 N.am   34  ALA34      -0.1965
     42  CA        43.3290   17.1600   -8.0210 C.3    34  ALA34       0.1728
     43  C         43.6770   18.2390   -9.0240 C.2    34  ALA34       0.2616
     44  O         44.8380   18.5710   -9.2690 O.2    34  ALA34      -0.2715
     45  CB        44.0070   15.9210   -8.5630 C.3    34  ALA34       0.0334
     46  N         42.6730   18.7460   -9.7260 N.am   35  VAL35      -0.1977
     47  CA        42.9150   19.8010  -10.6960 C.3    35  VAL35       0.1596
     48  C         43.3530   21.0630   -9.9460 C.2    35  VAL35       0.2287
     49  O         44.0330   21.9480  -10.4750 O.2    35  VAL35      -0.2864
     50  CB        41.6210   20.0150  -11.5420 C.3    35  VAL35       0.0276
     51  CG1       41.3980   18.7680  -12.3940 C.3    35  VAL35       0.0022
     52  CG2       40.3900   20.1840  -10.6870 C.3    35  VAL35       0.0022
     53  N         36.8860   23.9430   -8.0440 N.3    40  SER40      -0.1217
     54  CA        36.7740   22.5530   -7.8370 C.3    40  SER40       0.1889
     55  C         36.4800   22.6370   -6.3380 C.2    40  SER40       0.2288
     56  O         36.4600   21.5760   -5.7410 O.2    40  SER40      -0.2866
     57  CB        38.1060   21.9190   -8.1890 C.3    40  SER40       0.2089
     58  OG        38.2870   22.1120   -9.5850 O.3    40  SER40      -0.2183
     59  N         34.0600   23.0190   -3.1460 N.3    42  TYR42      -0.1241
     60  CA        32.6920   22.9540   -2.6930 C.3    42  TYR42       0.1605
     61  C         32.6420   22.9420   -1.1390 C.2    42  TYR42       0.2264
     62  O         33.5500   22.5000   -0.4370 O.2    42  TYR42      -0.2867
     63  CB        32.0370   21.6980   -3.2720 C.3    42  TYR42       0.0534
     64  CG        32.0780   21.6640   -4.7980 C.ar   42  TYR42      -0.0201
     65  CD1       33.2450   21.3030   -5.4940 C.ar   42  TYR42      -0.0009
     66  CD2       30.9090   21.9800   -5.4830 C.ar   42  TYR42      -0.0009
     67  CE1       33.2510   21.2620   -6.8880 C.ar   42  TYR42       0.0417
     68  CE2       30.8960   21.9340   -6.8790 C.ar   42  TYR42       0.0417
     69  CZ        32.0690   21.5810   -7.5680 C.ar   42  TYR42       0.1957
     70  OH        32.0320   21.5760   -8.9430 O.3    42  TYR42      -0.2866
     71  N         27.2500   18.8950   -4.9830 N.3    67  TRP67      -0.1241
     72  CA        28.1380   19.3100   -6.0590 C.3    67  TRP67       0.1605
     73  C         27.6690   20.4890   -6.9170 C.2    67  TRP67       0.2264
     74  O         27.5040   20.4280   -8.1400 O.2    67  TRP67      -0.2867
     75  CB        28.4570   18.0810   -6.9620 C.3    67  TRP67       0.0550
     76  CG        29.2140   16.9820   -6.2190 C.ar   67  TRP67       0.0003
     77  CD1       28.5950   15.8100   -5.8530 C.ar   67  TRP67       0.0946
     78  CD2       30.5070   17.0350   -5.7630 C.ar   67  TRP67       0.0152
     79  NE1       29.4890   15.1260   -5.1710 N.ar   67  TRP67      -0.2442
     80  CE2       30.6240   15.8070   -5.0910 C.ar   67  TRP67       0.0810
     81  CE3       31.6060   17.9080   -5.8040 C.ar   67  TRP67       0.0012
     82  CZ2       31.8050   15.4450   -4.4520 C.ar   67  TRP67       0.0191
     83  CZ3       32.7950   17.5440   -5.1610 C.ar   67  TRP67       0.0001
     84  CH2       32.9040   16.3300   -4.4860 C.ar   67  TRP67       0.0015
     85  N         29.8250   25.5290  -11.3870 N.3    72  ARG72      -0.1245
     86  CA        29.2340   24.3380  -11.9580 C.3    72  ARG72       0.1563
     87  C         28.1660   23.7690  -11.0400 C.2    72  ARG72       0.2260
     88  O         28.0950   24.0450   -9.8470 O.2    72  ARG72      -0.2867
     89  CB        30.2800   23.1990  -12.1700 C.3    72  ARG72       0.0307
     90  CG        31.8020   23.4630  -12.3810 C.3    72  ARG72       0.0489
     91  CD        32.2150   23.7550  -13.8210 C.3    72  ARG72       0.2205
     92  NE        32.0470   22.5900  -14.6900 N.pl3  72  ARG72      -0.0865
     93  CZ        32.9450   22.2540  -15.6390 C.cat  72  ARG72       0.5346
     94  NH1       34.0600   22.9630  -15.8620 N.pl3  72  ARG72       0.1354
     95  NH2       32.7230   21.1710  -16.3870 N.pl3  72  ARG72       0.1354
     96  N         26.6250   19.8880  -10.8380 N.3    74  ALA74      -0.1245
     97  CA        26.5200   18.5390  -11.3100 C.3    74  ALA74       0.1562
     98  C         25.2020   17.9080  -10.8610 C.2    74  ALA74       0.2260
     99  O         24.9870   16.7660  -11.2440 O.2    74  ALA74      -0.2867
    100  CB        27.7270   17.7340  -10.8010 C.3    74  ALA74       0.0290
    101  N         23.9660   16.5410   -7.9870 N.3    76  SER76      -0.1217
    102  CA        24.2550   15.3310   -7.2240 C.3    76  SER76       0.1889
    103  C         24.8670   15.7270   -5.8760 C.2    76  SER76       0.2288
    104  O         25.2270   16.9000   -5.6840 O.2    76  SER76      -0.2866
    105  CB        25.2480   14.4100   -8.0220 C.3    76  SER76       0.2089
    106  OG        26.4220   15.0690   -8.5420 O.3    76  SER76      -0.2183
    107  N         27.1960   13.8010   -2.4340 N.3    78  THR78      -0.1218
    108  CA        27.9480   12.6550   -1.8920 C.3    78  THR78       0.1862
    109  C         27.9890   12.7560   -0.3500 C.2    78  THR78       0.2287
    110  O         28.1300   13.8830    0.1820 O.2    78  THR78      -0.2866
    111  CB        29.4600   12.5870   -2.3850 C.3    78  THR78       0.1770
    112  OG1       29.4280   12.4490   -3.8170 O.3    78  THR78      -0.2211
    113  CG2       30.2620   11.4280   -1.7240 C.3    78  THR78       0.0375
    114  N         30.0330   10.8690    2.9900 N.3    80  TRP80      -0.1241
    115  CA        31.0880    9.9440    3.3820 C.3    80  TRP80       0.1605
    116  C         30.7790    9.6110    4.8350 C.2    80  TRP80       0.2264
    117  O         30.4390   10.4990    5.6410 O.2    80  TRP80      -0.2867
    118  CB        32.5000   10.5620    3.3840 C.3    80  TRP80       0.0550
    119  CG        33.1750   10.8230    2.0600 C.ar   80  TRP80       0.0003
    120  CD1       34.1950   10.0130    1.6110 C.ar   80  TRP80       0.0946
    121  CD2       32.9100   11.8600    1.2130 C.ar   80  TRP80       0.0152
    122  NE1       34.5920   10.5660    0.4720 N.ar   80  TRP80      -0.2442
    123  CE2       33.8590   11.6490    0.2030 C.ar   80  TRP80       0.0810
    124  CE3       32.0080   12.9340    1.1500 C.ar   80  TRP80       0.0012
    125  CZ2       33.9250   12.5030   -0.8890 C.ar   80  TRP80       0.0191
    126  CZ3       32.0710   13.7950    0.0540 C.ar   80  TRP80       0.0001
    127  CH2       33.0310   13.5710   -0.9540 C.ar   80  TRP80       0.0015
    128  N         31.4370    5.8850    0.8870 N.3    96  TRP96      -0.1241
    129  CA        30.6190    6.9940    0.4340 C.3    96  TRP96       0.1605
    130  C         29.5190    6.5220   -0.4860 C.2    96  TRP96       0.2264
    131  O         29.5960    5.4120   -1.0690 O.2    96  TRP96      -0.2867
    132  CB        31.5200    8.0490   -0.2810 C.3    96  TRP96       0.0550
    133  CG        32.3880    7.5760   -1.4620 C.ar   96  TRP96       0.0003
    134  CD1       33.7410    7.3890   -1.2870 C.ar   96  TRP96       0.0946
    135  CD2       31.9930    7.3030   -2.7780 C.ar   96  TRP96       0.0152
    136  NE1       34.2150    7.0100   -2.4540 N.ar   96  TRP96      -0.2442
    137  CE2       33.2280    6.9430   -3.3620 C.ar   96  TRP96       0.0810
    138  CE3       30.8330    7.3080   -3.5850 C.ar   96  TRP96       0.0012
    139  CZ2       33.3150    6.5870   -4.7380 C.ar   96  TRP96       0.0191
    140  CZ3       30.9160    6.9570   -4.9500 C.ar   96  TRP96       0.0001
    141  CH2       32.1450    6.6010   -5.5150 C.ar   96  TRP96       0.0015
    142  N         27.1230    8.3710   -3.6030 N.3    98  LEU98      -0.1245
    143  CA        26.8820    9.4790   -4.5090 C.3    98  LEU98       0.1561
    144  C         25.5130    9.3560   -5.1660 C.2    98  LEU98       0.2260
    145  O         25.2760    8.4080   -5.9180 O.2    98  LEU98      -0.2867
    146  CB        28.0000    9.5300   -5.5970 C.3    98  LEU98       0.0270
    147  CG        27.9640   10.3710   -6.9580 C.3    98  LEU98       0.0019
    148  CD1       27.5050   11.8100   -6.7780 C.3    98  LEU98       0.0001
    149  CD2       29.3780   10.3970   -7.5390 C.3    98  LEU98       0.0001
    150  N         22.5630   11.0060   -7.7470 N.3   100  SER100     -0.1217
    151  CA        22.2650   12.0130   -8.7460 C.3   100  SER100      0.1889
    152  C         20.7810   12.2730   -8.8440 C.2   100  SER100      0.2288
    153  O         19.9970   11.3580   -8.5610 O.2   100  SER100     -0.2866
    154  CB        22.7700   11.5470  -10.0980 C.3   100  SER100      0.2089
    155  OG        24.1870   11.6120  -10.1390 O.3   100  SER100     -0.2183
    156  N         37.0470    5.5770    0.3700 N.3   116  ASP116     -0.1239
    157  CA        38.1780    6.4970    0.3620 C.3   116  ASP116      0.1674
    158  C         39.0380    6.4940    1.6450 C.2   116  ASP116      0.2266
    159  O         38.4560    6.4040    2.7510 O.2   116  ASP116     -0.2867
    160  CB        37.6770    7.9520    0.1680 C.3   116  ASP116      0.1410
    161  CG        37.3090    8.5310   -1.2060 C.2   116  ASP116      0.3668
    162  OD1       37.7860    8.0240   -2.1930 O.co2 116  ASP116     -0.2456
    163  OD2       36.6050    9.5320   -1.3280 O.co2 116  ASP116     -0.2456
@<TRIPOS>BOND
     1    95    93    1
     2    94    93    1
     3    93    92    2
     4    92    91    1
     5    91    90    1
     6    51    50    1
     7    90    89    1
     8    89    86    1
     9    86    85    1
    10    86    87    1
    11    50    47    1
    12    50    52    1
    13    97    98    1
    14    97    96    1
    15    97   100    1
    16    99    98    2
    17    87    88    2
    18    47    48    1
    19    47    46    1
    20    49    48    2
    21   155   154    1
    22   154   151    1
    23    46    43   am
    24    58    57    1
    25    44    43    2
    26    43    42    1
    27    70    69    1
    28   152   151    1
    29   152   153    2
    30   151   150    1
    31    45    42    1
    32   106   105    1
    33    40    39    1
    34    57    54    1
    35    74    73    2
    36    53    54    1
    37   105   102    1
    38    42    41    1
    39   101   102    1
    40    39    36    1
    41    54    55    1
    42    41    37   am
    43    69    67   ar
    44    69    68   ar
    45   149   147    1
    46    16    14    1
    47    15    14    1
    48   102   103    1
    49    12    11    2
    50    37    38    2
    51    37    36    1
    52    75    76    1
    53    75    72    1
    54   147   148    1
    55   147   146    1
    56    73    72    1
    57    67    65   ar
    58    68    66   ar
    59    36    35    1
    60    14    13    1
    61    13    10    1
    62    55    56    2
    63    76    77   ar
    64    76    78   ar
    65    11    10    1
    66    10     9    1
    67    72    71    1
    68   145   144    2
    69   103   104    2
    70    77    79   ar
    71    81    78   ar
    72    81    83   ar
    73    78    80   ar
    74   146   143    1
    75   141   140   ar
    76   141   139   ar
    77    65    64   ar
    78    66    64   ar
    79    22    21    1
    80    79    80   ar
    81   144   143    1
    82    83    84   ar
    83    80    82   ar
    84   140   138   ar
    85    64    63    1
    86   139   137   ar
    87   143   142    1
    88    84    82   ar
    89    17    18    1
    90    21    18    1
    91    18    19    1
    92   112   111    1
    93   138   135   ar
    94   137   135   ar
    95   137   136   ar
    96    63    60    1
    97     7     6    2
    98    59    60    1
    99    31    29   ar
   100    31    33   ar
   101   135   133   ar
   102    26    25    2
   103    60    61    1
   104     8     6   am
   105    29    28   ar
   106    19    20    2
   107   136   134   ar
   108   107   108    1
   109   111   108    1
   110   111   113    1
   111     6     5    1
   112     4     3    2
   113   162   161   ar
   114    25    24    1
   115    34    33    1
   116   108   109    1
   117    33    32   ar
   118     3     2    1
   119   133   134   ar
   120   133   132    1
   121   163   161   ar
   122   161   160    1
   123    28    27    1
   124    28    30   ar
   125    61    62    2
   126   131   130    2
   127   127   125   ar
   128   127   126   ar
   129     5     2    1
   130   125   123   ar
   131    27    24    1
   132    24    23    1
   133     2     1    1
   134   130   129    1
   135    32    30   ar
   136   109   110    2
   137   132   129    1
   138   126   124   ar
   139   160   157    1
   140   123   122   ar
   141   123   121   ar
   142   157   156    1
   143   157   158    1
   144   129   128    1
   145   122   120   ar
   146   124   121   ar
   147   121   119   ar
   148   120   119   ar
   149   158   159    2
   150   119   118    1
   151   114   115    1
   152   115   118    1
   153   115   116    1
   154   116   117    2
