@<TRIPOS>MOLECULE
tmp/1stsB00.pdb
 157 149 0 0 0
SMALL
GASTEIGER

@<TRIPOS>ATOM
      1  N          9.9530    8.3610    8.8530 N.3    11  ASN11      -0.1240
      2  CA        10.3820    7.2140    8.0690 C.3    11  ASN11       0.1653
      3  C          9.4060    6.0990    8.4250 C.2    11  ASN11       0.2266
      4  O          8.5090    6.2230    9.2680 O.2    11  ASN11      -0.2867
      5  CB        11.8050    6.7620    8.3520 C.3    11  ASN11       0.1155
      6  CG        12.1330    6.0860    9.6640 C.2    11  ASN11       0.2627
      7  OD1       11.2840    5.9300   10.5080 O.2    11  ASN11      -0.2716
      8  ND2       13.3530    5.6530    9.9250 N.am   11  ASN11      -0.0877
      9  N          9.5110    3.5670   10.1960 N.3    13  LEU13      -0.1245
     10  CA         9.6290    3.0420   11.5290 C.3    13  LEU13       0.1561
     11  C          9.2190    4.0540   12.6130 C.2    13  LEU13       0.2260
     12  O          9.5170    3.8290   13.7930 O.2    13  LEU13      -0.2867
     13  CB        11.1180    2.5800   11.7280 C.3    13  LEU13       0.0270
     14  CG        11.6850    1.5150   10.7510 C.3    13  LEU13       0.0019
     15  CD1       13.0890    1.0830   11.0850 C.3    13  LEU13       0.0001
     16  CD2       10.8200    0.2730   10.8570 C.3    13  LEU13       0.0001
     17  N         10.4880    7.1930   13.2650 N.3    15  SER15      -0.1217
     18  CA        11.5220    8.1660   13.6570 C.3    15  SER15       0.1889
     19  C         11.1200    9.5150   13.0280 C.2    15  SER15       0.2288
     20  O         10.5570    9.4870   11.9130 O.2    15  SER15      -0.2866
     21  CB        12.8590    7.6620   13.1270 C.3    15  SER15       0.2089
     22  OG        13.1570    6.4250   13.7760 O.3    15  SER15      -0.2183
     23  N         16.8750   15.0110   14.7230 N.3    31  TYR31      -0.1241
     24  CA        16.4220   13.6400   14.5000 C.3    31  TYR31       0.1605
     25  C         16.0800   13.0070   15.8450 C.2    31  TYR31       0.2264
     26  O         16.8360   13.1190   16.8060 O.2    31  TYR31      -0.2867
     27  CB        17.5460   12.7750   13.8020 C.3    31  TYR31       0.0534
     28  CG        17.0680   11.4460   13.2020 C.ar   31  TYR31      -0.0201
     29  CD1       16.9560   10.3310   14.0400 C.ar   31  TYR31      -0.0009
     30  CD2       16.7070   11.3200   11.8410 C.ar   31  TYR31      -0.0009
     31  CE1       16.5020    9.1200   13.5390 C.ar   31  TYR31       0.0417
     32  CE2       16.2470   10.0960   11.3310 C.ar   31  TYR31       0.0417
     33  CZ        16.1470    9.0080   12.1980 C.ar   31  TYR31       0.1957
     34  OH        15.7190    7.7710   11.7480 O.3    31  TYR31      -0.2866
     35  N         14.2740    9.3400   17.5980 N.3    33  SER33      -0.1202
     36  CA        13.7710    7.9630   17.5080 C.3    33  SER33       0.2020
     37  C         12.2600    7.8700   17.7510 C.2    33  SER33       0.2619
     38  O         11.6470    8.8720   18.1540 O.2    33  SER33      -0.2717
     39  CB        14.4830    7.0930   18.5720 C.3    33  SER33       0.2103
     40  OG        15.7110    7.6390   19.0610 O.3    33  SER33      -0.2182
     41  N         11.5850    6.7290   17.4970 N.am   34  ALA34      -0.1965
     42  CA        10.1560    6.6000   17.8060 C.3    34  ALA34       0.1728
     43  C         10.0400    6.6580   19.3480 C.2    34  ALA34       0.2616
     44  O         11.0750    6.7760   20.0060 O.2    34  ALA34      -0.2715
     45  CB         9.6000    5.2640   17.3560 C.3    34  ALA34       0.0334
     46  N          8.9090    6.5090   20.0600 N.am   35  VAL35      -0.1977
     47  CA         8.7440    6.6290   21.5310 C.3    35  VAL35       0.1596
     48  C          8.6830    8.1580   21.6600 C.2    35  VAL35       0.2287
     49  O          7.7690    8.6680   22.3030 O.2    35  VAL35      -0.2864
     50  CB         9.9240    6.0650   22.4380 C.3    35  VAL35       0.0276
     51  CG1        9.6530    6.3200   23.9140 C.3    35  VAL35       0.0022
     52  CG2       10.0520    4.5570   22.2350 C.3    35  VAL35       0.0022
     53  N         18.8250   14.2360   18.6360 N.3    42  TYR42      -0.1241
     54  CA        20.1980   14.4380   18.2280 C.3    42  TYR42       0.1605
     55  C         20.2010   15.4230   17.0660 C.2    42  TYR42       0.2264
     56  O         19.2470   15.5640   16.2950 O.2    42  TYR42      -0.2867
     57  CB        20.8600   13.1360   17.7470 C.3    42  TYR42       0.0534
     58  CG        20.8670   12.0220   18.7660 C.ar   42  TYR42      -0.0201
     59  CD1       19.7240   11.2090   18.9610 C.ar   42  TYR42      -0.0009
     60  CD2       21.9960   11.8590   19.5520 C.ar   42  TYR42      -0.0009
     61  CE1       19.7210   10.2450   19.9760 C.ar   42  TYR42       0.0417
     62  CE2       21.9920   10.8860   20.5570 C.ar   42  TYR42       0.0417
     63  CZ        20.8570   10.0960   20.7650 C.ar   42  TYR42       0.1957
     64  OH        20.9060    9.1560   21.7660 O.3    42  TYR42      -0.2866
     65  N         25.9100   10.1920   17.0260 N.3    67  TRP67      -0.1241
     66  CA        25.0260    9.7170   18.0960 C.3    67  TRP67       0.1605
     67  C         25.4390    9.9040   19.5630 C.2    67  TRP67       0.2264
     68  O         25.4590    8.9870   20.3690 O.2    67  TRP67      -0.2867
     69  CB        24.6810    8.1950   17.7510 C.3    67  TRP67       0.0550
     70  CG        23.9920    7.9860   16.3760 C.ar   67  TRP67       0.0003
     71  CD1       24.6410    7.3850   15.3180 C.ar   67  TRP67       0.0946
     72  CD2       22.6950    8.3610   16.0540 C.ar   67  TRP67       0.0152
     73  NE1       23.7700    7.3610   14.3290 N.ar   67  TRP67      -0.2442
     74  CE2       22.5890    7.9340   14.7170 C.ar   67  TRP67       0.0810
     75  CE3       21.6060    8.9750   16.6850 C.ar   67  TRP67       0.0012
     76  CZ2       21.3840    8.1400   14.0340 C.ar   67  TRP67       0.0191
     77  CZ3       20.4120    9.1740   16.0000 C.ar   67  TRP67       0.0001
     78  CH2       20.3020    8.7570   14.6730 C.ar   67  TRP67       0.0015
     79  N         23.3280   10.5460   26.3890 N.3    72  ARG72      -0.1245
     80  CA        23.9680    9.3420   25.8650 C.3    72  ARG72       0.1563
     81  C         25.0690    9.4940   24.8260 C.2    72  ARG72       0.2260
     82  O         25.0880   10.5140   24.1550 O.2    72  ARG72      -0.2867
     83  CB        22.9050    8.4320   25.2530 C.3    72  ARG72       0.0307
     84  CG        21.7700    7.9770   26.1560 C.3    72  ARG72       0.0489
     85  CD        20.7130    7.1730   25.3830 C.3    72  ARG72       0.2205
     86  NE        19.5320    6.8860   26.2010 N.pl3  72  ARG72      -0.0865
     87  CZ        18.5670    7.7870   26.4490 C.cat  72  ARG72       0.5346
     88  NH1       18.6240    9.0230   25.9590 N.pl3  72  ARG72       0.1354
     89  NH2       17.5060    7.4370   27.1710 N.pl3  72  ARG72       0.1354
     90  N         26.7070    6.9260   21.9260 N.3    74  ALA74      -0.1245
     91  CA        26.8110    5.6110   21.3210 C.3    74  ALA74       0.1562
     92  C         27.9630    5.4260   20.3620 C.2    74  ALA74       0.2260
     93  O         27.9200    4.5360   19.5150 O.2    74  ALA74      -0.2867
     94  CB        25.5330    5.2070   20.5630 C.3    74  ALA74       0.0290
     95  N         29.1770    6.3920   17.4020 N.3    76  SER76      -0.1217
     96  CA        28.7890    6.1520   16.0280 C.3    76  SER76       0.1889
     97  C         28.2250    7.3880   15.3410 C.2    76  SER76       0.2288
     98  O         27.8170    8.3560   16.0060 O.2    76  SER76      -0.2866
     99  CB        27.7480    5.0010   16.0270 C.3    76  SER76       0.2089
    100  OG        26.6700    5.0930   16.9670 O.3    76  SER76      -0.2183
    101  N         25.8650    8.3220   11.3600 N.3    78  THR78      -0.1218
    102  CA        25.1210    7.8570   10.1990 C.3    78  THR78       0.1862
    103  C         25.0050    8.9630    9.1460 C.2    78  THR78       0.2287
    104  O         24.7440   10.1010    9.5270 O.2    78  THR78      -0.2866
    105  CB        23.6550    7.4550   10.4870 C.3    78  THR78       0.1770
    106  OG1       23.7450    6.5740   11.5950 O.3    78  THR78      -0.2211
    107  CG2       22.9290    6.7540    9.3080 C.3    78  THR78       0.0375
    108  N         22.9610    9.8060    5.2820 N.3    80  TRP80      -0.1241
    109  CA        21.8550    9.3970    4.4030 C.3    80  TRP80       0.1605
    110  C         22.1760   10.1450    3.0950 C.2    80  TRP80       0.2264
    111  O         22.5310   11.3220    3.1880 O.2    80  TRP80      -0.2867
    112  CB        20.4920    9.8660    4.9520 C.3    80  TRP80       0.0550
    113  CG        19.9690    9.2430    6.2570 C.ar   80  TRP80       0.0003
    114  CD1       18.8970    8.4030    6.1300 C.ar   80  TRP80       0.0946
    115  CD2       20.3470    9.4360    7.6050 C.ar   80  TRP80       0.0152
    116  NE1       18.5710    8.0530    7.3550 N.ar   80  TRP80      -0.2442
    117  CE2       19.3810    8.6320    8.2740 C.ar   80  TRP80       0.0810
    118  CE3       21.2780   10.1300    8.4000 C.ar   80  TRP80       0.0012
    119  CZ2       19.3520    8.5250    9.6940 C.ar   80  TRP80       0.0191
    120  CZ3       21.2560   10.0340    9.8090 C.ar   80  TRP80       0.0001
    121  CH2       20.2990    9.2280   10.4580 C.ar   80  TRP80       0.0015
    122  N         21.6670    4.6490    3.5220 N.3    96  TRP96      -0.1241
    123  CA        22.4800    5.2620    4.5690 C.3    96  TRP96       0.1605
    124  C         23.6500    4.3820    5.0210 C.2    96  TRP96       0.2264
    125  O         23.5810    3.1710    4.7620 O.2    96  TRP96      -0.2867
    126  CB        21.5380    5.5960    5.7750 C.3    96  TRP96       0.0550
    127  CG        20.6620    4.4590    6.3380 C.ar   96  TRP96       0.0003
    128  CD1       19.3110    4.4940    6.0920 C.ar   96  TRP96       0.0946
    129  CD2       21.0260    3.3480    7.0890 C.ar   96  TRP96       0.0152
    130  NE1       18.8160    3.4210    6.6700 N.ar   96  TRP96      -0.2442
    131  CE2       19.7720    2.7090    7.2640 C.ar   96  TRP96       0.0810
    132  CE3       22.1700    2.7610    7.6680 C.ar   96  TRP96       0.0012
    133  CZ2       19.6420    1.5220    7.9910 C.ar   96  TRP96       0.0191
    134  CZ3       22.0500    1.5600    8.4030 C.ar   96  TRP96       0.0001
    135  CH2       20.7840    0.9590    8.5670 C.ar   96  TRP96       0.0015
    136  N         26.1660    3.5290    8.5070 N.3    98  LEU98      -0.1245
    137  CA        26.2840    3.7140    9.9710 C.3    98  LEU98       0.1561
    138  C         27.6460    3.1410   10.3110 C.2    98  LEU98       0.2260
    139  O         27.8200    1.9340   10.0890 O.2    98  LEU98      -0.2867
    140  CB        25.1570    2.9500   10.6710 C.3    98  LEU98       0.0270
    141  CG        25.1260    2.7830   12.1930 C.3    98  LEU98       0.0019
    142  CD1       25.2580    4.1150   12.9150 C.3    98  LEU98       0.0001
    143  CD2       23.8100    2.1220   12.5550 C.3    98  LEU98       0.0001
    144  N         30.7730    2.6270   13.3560 N.3   100  SER100     -0.1217
    145  CA        31.0250    2.6940   14.7880 C.3   100  SER100      0.1889
    146  C         32.5280    2.8450   15.0390 C.2   100  SER100      0.2288
    147  O         33.3470    2.3680   14.2480 O.2   100  SER100     -0.2866
    148  CB        30.5790    1.4520   15.4940 C.3   100  SER100      0.2089
    149  OG        29.1680    1.2380   15.4310 O.3   100  SER100     -0.2183
    150  N         15.8550    4.2090    3.4880 N.3   116  ASP116     -0.1239
    151  CA        14.6880    4.7500    4.2270 C.3   116  ASP116      0.1674
    152  C         13.8370    5.6140    3.3140 C.2   116  ASP116      0.2266
    153  O         14.4170    6.2940    2.4540 O.2   116  ASP116     -0.2867
    154  CB        15.0220    5.7350    5.3880 C.3   116  ASP116      0.1410
    155  CG        15.3620    5.2770    6.8090 C.2   116  ASP116      0.3668
    156  OD1       14.6590    4.4470    7.3740 O.co2 116  ASP116     -0.2456
    157  OD2       16.3180    5.8030    7.3810 O.co2 116  ASP116     -0.2456
@<TRIPOS>BOND
     1   153   152    2
     2   110   111    2
     3   110   109    1
     4   152   151    1
     5   150   151    1
     6   122   123    1
     7   151   154    1
     8   109   112    1
     9   109   108    1
    10   123   124    1
    11   123   126    1
    12   125   124    2
    13   112   113    1
    14   154   155    1
    15   126   127    1
    16   128   127   ar
    17   128   130   ar
    18   114   113   ar
    19   114   116   ar
    20   113   115   ar
    21   127   129   ar
    22   130   131   ar
    23   155   156   ar
    24   155   157   ar
    25   129   131   ar
    26   129   132   ar
    27   131   133   ar
    28   116   117   ar
    29   115   117   ar
    30   115   118   ar
    31   132   134   ar
    32   133   135   ar
    33     2     5    1
    34     2     3    1
    35     2     1    1
    36   117   119   ar
    37     5     6    1
    38   118   120   ar
    39   134   135   ar
    40     3     4    2
    41   136   137    1
    42   103   104    2
    43   103   102    1
    44   107   105    1
    45     6     8   am
    46     6     7    2
    47   119   121   ar
    48   120   121   ar
    49   137   138    1
    50   137   140    1
    51   139   138    2
    52     9    10    1
    53   102   105    1
    54   102   101    1
    55   105   106    1
    56   140   141    1
    57    14    16    1
    58    14    15    1
    59    14    13    1
    60    32    30   ar
    61    32    33   ar
    62    10    13    1
    63    10    11    1
    64    34    33    1
    65    30    28   ar
    66    20    19    2
    67   141   143    1
    68   141   142    1
    69    33    31   ar
    70    11    12    2
    71    19    18    1
    72    21    18    1
    73    21    22    1
    74    28    27    1
    75    28    29   ar
    76    17    18    1
    77   144   145    1
    78    31    29   ar
    79    27    24    1
    80    76    78   ar
    81    76    74   ar
    82   147   146    2
    83    73    74   ar
    84    73    71   ar
    85    24    23    1
    86    24    25    1
    87    78    77   ar
    88    74    72   ar
    89   145   146    1
    90   145   148    1
    91    71    70   ar
    92    97    98    2
    93    97    96    1
    94   149   148    1
    95    25    26    2
    96    77    75   ar
    97    99    96    1
    98    99   100    1
    99    96    95    1
   100    72    70   ar
   101    72    75   ar
   102    56    55    2
   103    70    69    1
   104    65    66    1
   105    55    54    1
   106    45    42    1
   107    41    37   am
   108    41    42    1
   109    36    35    1
   110    36    37    1
   111    36    39    1
   112    57    54    1
   113    57    58    1
   114    37    38    2
   115    69    66    1
   116    42    43    1
   117    66    67    1
   118    54    53    1
   119    39    40    1
   120    58    59   ar
   121    58    60   ar
   122    59    61   ar
   123    43    44    2
   124    43    46   am
   125    93    92    2
   126    60    62   ar
   127    67    68    2
   128    61    63   ar
   129    46    47    1
   130    92    91    1
   131    62    63   ar
   132    94    91    1
   133    63    64    1
   134    91    90    1
   135    47    48    1
   136    47    50    1
   137    48    49    2
   138    52    50    1
   139    50    51    1
   140    82    81    2
   141    81    80    1
   142    83    80    1
   143    83    84    1
   144    85    84    1
   145    85    86    1
   146    80    79    1
   147    88    87    1
   148    86    87    2
   149    87    89    1
