@<TRIPOS>MOLECULE
tmp/1su2B00.pdb
 99 94 0 0 0
SMALL
GASTEIGER

@<TRIPOS>ATOM
      1  N         30.7420   16.7040  -26.8190 N.3    13  LEU13      -0.1231
      2  CA        29.4500   16.4370  -27.4290 C.3    13  LEU13       0.1693
      3  C         29.3550   15.0700  -28.0760 C.2    13  LEU13       0.2592
      4  O         30.3180   14.5680  -28.6470 O.2    13  LEU13      -0.2718
      5  CB        29.1520   17.4880  -28.4950 C.3    13  LEU13       0.0284
      6  CG        29.0840   18.9400  -28.0320 C.3    13  LEU13       0.0019
      7  CD1       28.9050   19.8310  -29.2470 C.3    13  LEU13       0.0001
      8  CD2       27.9390   19.1170  -27.0450 C.3    13  LEU13       0.0001
      9  N         28.1770   14.4710  -27.9760 N.am   14  ARG14      -0.1966
     10  CA        27.9420   13.1800  -28.5880 C.3    14  ARG14       0.1729
     11  C         26.6140   13.2470  -29.3200 C.2    14  ARG14       0.2616
     12  O         25.6500   13.8020  -28.7990 O.2    14  ARG14      -0.2715
     13  CB        27.9160   12.0730  -27.5300 C.3    14  ARG14       0.0348
     14  CG        29.2870   11.4440  -27.2670 C.3    14  ARG14       0.0492
     15  CD        29.5780   10.9480  -26.0020 C.3    14  ARG14       0.2205
     16  NE        31.0300   10.7650  -25.9510 N.pl3  14  ARG14      -0.0865
     17  CZ        31.7520   10.7040  -24.8340 C.cat  14  ARG14       0.5346
     18  NH1       32.6900    9.7760  -24.6880 N.pl3  14  ARG14       0.1354
     19  NH2       31.5330   11.5760  -23.8560 N.pl3  14  ARG14       0.1354
     20  N         26.5820   12.6780  -30.5150 N.am   15  ALA15      -0.1977
     21  CA        25.3660   12.6460  -31.3130 C.3    15  ALA15       0.1597
     22  C         25.1110   11.1980  -31.6830 C.2    15  ALA15       0.2287
     23  O         26.0400   10.3940  -31.7670 O.2    15  ALA15      -0.2864
     24  CB        25.5290   13.4850  -32.5700 C.3    15  ALA15       0.0319
     25  N         19.3130   12.1250  -36.7040 N.3    49  SER49      -0.1202
     26  CA        20.3170   12.0970  -35.6520 C.3    49  SER49       0.2020
     27  C         20.1320   13.3010  -34.7530 C.2    49  SER49       0.2619
     28  O         19.5540   14.3100  -35.1580 O.2    49  SER49      -0.2717
     29  CB        21.7100   12.1210  -36.2900 C.3    49  SER49       0.2103
     30  OG        22.7430   12.1890  -35.3230 O.3    49  SER49      -0.2182
     31  N         20.6220   13.1910  -33.5260 N.am   50  GLY50      -0.1942
     32  CA        20.4930   14.2910  -32.5980 C.3    50  GLY50       0.2014
     33  C         21.4370   14.1510  -31.4280 C.2    50  GLY50       0.2638
     34  O         22.1490   13.1540  -31.2880 O.2    50  GLY50      -0.2714
     35  N         21.4250   15.1590  -30.5720 N.am   51  ALA51      -0.1977
     36  CA        22.2900   15.1850  -29.4080 C.3    51  ALA51       0.1597
     37  C         21.9700   14.1210  -28.3700 C.2    51  ALA51       0.2287
     38  O         20.8050   13.8560  -28.0570 O.2    51  ALA51      -0.2864
     39  CB        22.2330   16.5570  -28.7650 C.3    51  ALA51       0.0319
     40  N         34.8000   21.1990  -33.8200 N.3    87  PHE87      -0.1228
     41  CA        34.3020   22.5080  -34.2120 C.3    87  PHE87       0.1721
     42  C         35.4580   23.5100  -34.1520 C.2    87  PHE87       0.2437
     43  O         36.4960   23.2450  -33.5350 O.2    87  PHE87      -0.2733
     44  CB        33.1480   22.9160  -33.2890 C.3    87  PHE87       0.0547
     45  CG        31.8980   22.1170  -33.5170 C.ar   87  PHE87      -0.0202
     46  CD1       31.1300   22.3190  -34.6620 C.ar   87  PHE87      -0.0042
     47  CD2       31.5070   21.1310  -32.6150 C.ar   87  PHE87      -0.0042
     48  CE1       29.9940   21.5500  -34.9060 C.ar   87  PHE87      -0.0003
     49  CE2       30.3750   20.3590  -32.8490 C.ar   87  PHE87      -0.0003
     50  CZ        29.6160   20.5660  -33.9950 C.ar   87  PHE87      -0.0000
     51  N         35.3010   24.6690  -34.8090 N.am   88  PRO88      -0.2718
     52  CA        36.3540   25.6880  -34.8160 C.3    88  PRO88       0.1535
     53  C         36.8860   26.0770  -33.4410 C.2    88  PRO88       0.2598
     54  O         38.0710   26.3770  -33.2960 O.2    88  PRO88      -0.2715
     55  CB        35.6920   26.8580  -35.5370 C.3    88  PRO88       0.0310
     56  CG        34.8060   26.1600  -36.5260 C.3    88  PRO88       0.0237
     57  CD        34.1760   25.0730  -35.6720 C.3    88  PRO88       0.0939
     58  N         36.0170   26.0700  -32.4350 N.am   89  ASP89      -0.1972
     59  CA        36.4440   26.4380  -31.0940 C.3    89  ASP89       0.1709
     60  C         37.1640   25.3200  -30.3490 C.2    89  ASP89       0.2293
     61  O         37.5470   25.4890  -29.1940 O.2    89  ASP89      -0.2864
     62  CB        35.2540   26.9480  -30.2670 C.3    89  ASP89       0.1436
     63  CG        34.1640   25.9040  -30.0790 C.2    89  ASP89       0.3671
     64  OD1       34.3380   24.7490  -30.5170 O.co2  89  ASP89      -0.2456
     65  OD2       33.1190   26.2500  -29.4820 O.co2  89  ASP89      -0.2456
     66  N         35.8820   22.2280  -29.7050 N.3    91  VAL91      -0.1245
     67  CA        34.9730   21.2360  -29.1350 C.3    91  VAL91       0.1561
     68  C         34.8960   19.9830  -30.0030 C.2    91  VAL91       0.2260
     69  O         34.7240   20.0690  -31.2140 O.2    91  VAL91      -0.2867
     70  CB        33.5470   21.8100  -28.9750 C.3    91  VAL91       0.0252
     71  CG1       32.5720   20.6980  -28.6010 C.3    91  VAL91       0.0019
     72  CG2       33.5410   22.8900  -27.8940 C.3    91  VAL91       0.0019
     73  N         33.1200   16.3900  -31.1360 N.3    93  ILE93      -0.1245
     74  CA        31.8140   15.7560  -31.2000 C.3    93  ILE93       0.1561
     75  C         31.9800   14.3590  -31.7870 C.2    93  ILE93       0.2260
     76  O         32.5910   14.1790  -32.8430 O.2    93  ILE93      -0.2867
     77  CB        30.8080   16.5780  -32.0490 C.3    93  ILE93       0.0252
     78  CG1       29.4680   15.8410  -32.1190 C.3    93  ILE93       0.0019
     79  CG2       31.3710   16.8280  -33.4460 C.3    93  ILE93       0.0019
     80  CD1       28.3270   16.6860  -32.6490 C.3    93  ILE93       0.0001
     81  N         30.0430   11.2630  -33.2990 N.3    95  ARG95      -0.1245
     82  CA        28.7740   10.8530  -33.8920 C.3    95  ARG95       0.1563
     83  C         28.6880    9.3330  -33.9470 C.2    95  ARG95       0.2260
     84  O         29.6230    8.6750  -34.3980 O.2    95  ARG95      -0.2867
     85  CB        28.6390   11.4430  -35.3010 C.3    95  ARG95       0.0307
     86  CG        28.4890   12.9640  -35.3100 C.3    95  ARG95       0.0489
     87  CD        28.5130   13.5290  -36.7300 C.3    95  ARG95       0.2205
     88  NE        27.4670   12.9510  -37.5690 N.pl3  95  ARG95      -0.0865
     89  CZ        26.1760   13.2500  -37.4820 C.cat  95  ARG95       0.5346
     90  NH1       25.7500   14.1390  -36.5920 N.pl3  95  ARG95       0.1354
     91  NH2       25.3060   12.6430  -38.2790 N.pl3  95  ARG95       0.1354
     92  N         26.9560   15.2420  -44.8550 N.3   138  MET138     -0.1245
     93  CA        28.1410   14.5390  -44.3830 C.3   138  MET138      0.1570
     94  C         28.3780   13.3340  -45.2750 C.2   138  MET138      0.2261
     95  O         27.5200   12.4650  -45.3910 O.2   138  MET138     -0.2867
     96  CB        27.9390   14.1100  -42.9250 C.3   138  MET138      0.0387
     97  CG        27.6120   15.2810  -42.0080 C.3   138  MET138      0.0595
     98  SD        27.5280   14.8470  -40.2710 S.3   138  MET138     -0.1393
     99  CE        29.2770   14.8760  -39.8630 C.3   138  MET138      0.0692
@<TRIPOS>BOND
     1    95    94    2
     2    94    93    1
     3    92    93    1
     4    93    96    1
     5    96    97    1
     6    97    98    1
     7    98    99    1
     8    91    89    1
     9    88    89    2
    10    88    87    1
    11    89    90    1
    12    87    86    1
    13    25    26    1
    14    56    57    1
    15    56    55    1
    16    29    26    1
    17    29    30    1
    18    57    51    1
    19    26    27    1
    20    55    52    1
    21    86    85    1
    22    85    82    1
    23    28    27    2
    24    48    46   ar
    25    48    50   ar
    26    52    51    1
    27    52    53    1
    28    51    42   am
    29    27    31   am
    30    46    45   ar
    31    84    83    2
    32    41    42    1
    33    41    40    1
    34    41    44    1
    35    42    43    2
    36    50    49   ar
    37    83    82    1
    38    82    81    1
    39    31    32    1
    40    45    44    1
    41    45    47   ar
    42    79    77    1
    43    53    54    2
    44    53    58   am
    45    49    47   ar
    46    76    75    2
    47    80    78    1
    48    32    33    1
    49    24    21    1
    50    58    59    1
    51    78    77    1
    52    77    74    1
    53    75    74    1
    54    23    22    2
    55    22    21    1
    56    33    34    2
    57    33    35   am
    58    21    20    1
    59    69    68    2
    60    74    73    1
    61    59    60    1
    62    59    62    1
    63    35    36    1
    64    64    63   ar
    65    20    11   am
    66    60    61    2
    67    62    63    1
    68    63    65   ar
    69    68    67    1
    70    66    67    1
    71    36    39    1
    72    36    37    1
    73    11    12    2
    74    11    10    1
    75     7     6    1
    76    67    70    1
    77    70    71    1
    78    70    72    1
    79     4     3    2
    80    10     9    1
    81    10    13    1
    82     5     6    1
    83     5     2    1
    84    37    38    2
    85     3     9   am
    86     3     2    1
    87     6     8    1
    88    13    14    1
    89     2     1    1
    90    14    15    1
    91    15    16    1
    92    16    17    2
    93    17    18    1
    94    17    19    1
