@<TRIPOS>MOLECULE
tmp/1su3B00.pdb
 77 75 0 0 0
SMALL
GASTEIGER

@<TRIPOS>ATOM
      1  N         21.7640  -92.4540   11.0180 N.3    52  GLY52      -0.1210
      2  CA        20.8150  -93.4230   10.5030 C.3    52  GLY52       0.1956
      3  C         20.2570  -94.3870   11.5290 C.2    52  GLY52       0.2612
      4  O         19.3100  -95.1150   11.2480 O.2    52  GLY52      -0.2717
      5  N         20.8130  -94.3830   12.7310 N.am   53  VAL53      -0.1966
      6  CA        20.3210  -95.2560   13.7840 C.3    53  VAL53       0.1712
      7  C         18.9740  -94.7280   14.3170 C.2    53  VAL53       0.2458
      8  O         18.8200  -93.5260   14.4610 O.2    53  VAL53      -0.2730
      9  CB        21.3480  -95.3460   14.9080 C.3    53  VAL53       0.0289
     10  CG1       20.8170  -96.1710   16.0580 C.3    53  VAL53       0.0023
     11  CG2       22.6440  -95.9760   14.3560 C.3    53  VAL53       0.0023
     12  N         17.9910  -95.6070   14.5430 N.am   54  PRO54      -0.2727
     13  CA        16.7110  -95.1990   15.1380 C.3    54  PRO54       0.1402
     14  C         16.8400  -94.5290   16.4990 C.2    54  PRO54       0.2269
     15  O         17.8180  -94.7620   17.2220 O.2    54  PRO54      -0.2865
     16  CB        15.9510  -96.5270   15.2850 C.3    54  PRO54       0.0296
     17  CG        16.5300  -97.4100   14.2400 C.3    54  PRO54       0.0237
     18  CD        17.9780  -97.0330   14.1700 C.3    54  PRO54       0.0939
     19  N         14.4360  -94.8520   18.9520 N.3    56  VAL56      -0.1231
     20  CA        13.8290  -95.6480   20.0180 C.3    56  VAL56       0.1692
     21  C         14.1780  -97.1080   19.8650 C.2    56  VAL56       0.2591
     22  O         14.4760  -97.5660   18.7630 O.2    56  VAL56      -0.2718
     23  CB        12.2840  -95.5010   20.0700 C.3    56  VAL56       0.0266
     24  CG1       11.8960  -94.1390   20.6280 C.3    56  VAL56       0.0020
     25  CG2       11.6560  -95.7230   18.7010 C.3    56  VAL56       0.0020
     26  N         14.1250  -97.8420   20.9740 N.am   57  ALA57      -0.1980
     27  CA        14.3920  -99.2830   20.9520 C.3    57  ALA57       0.1597
     28  C         13.1470 -100.0740   20.5570 C.2    57  ALA57       0.2287
     29  O         12.9180 -100.3530   19.3720 O.2    57  ALA57      -0.2864
     30  CB        14.9020  -99.7460   22.3110 C.3    57  ALA57       0.0319
     31  N         20.8230 -101.7300    5.8520 N.3   123  SER123     -0.1217
     32  CA        20.5970 -100.3220    6.1720 C.3   123  SER123      0.1889
     33  C         21.2510  -99.4560    5.1110 C.2   123  SER123      0.2288
     34  O         22.3470  -98.9650    5.3130 O.2   123  SER123     -0.2866
     35  CB        21.1610  -99.9990    7.5490 C.3   123  SER123      0.2089
     36  OG        20.3270 -100.5360    8.5620 O.3   123  SER123     -0.2183
     37  N         26.0190  -94.6100   10.2320 N.3   134  HIS134     -0.1226
     38  CA        25.4080  -95.3980   11.2850 C.3   134  HIS134      0.1752
     39  C         26.4050  -96.3730   11.8480 C.2   134  HIS134      0.2596
     40  O         27.4810  -96.5530   11.3110 O.2   134  HIS134     -0.2718
     41  CB        24.1370  -96.1250   10.8240 C.3   134  HIS134      0.0759
     42  CG        24.3190  -97.0040    9.6250 C.ar  134  HIS134      0.0818
     43  ND1       23.4510  -96.9630    8.5580 N.ar  134  HIS134     -0.2268
     44  CD2       25.2290  -97.9680    9.3320 C.ar  134  HIS134      0.1154
     45  CE1       23.8290  -97.8460    7.6520 C.ar  134  HIS134      0.1986
     46  NE2       24.9000  -98.4720    8.0980 N.ar  134  HIS134     -0.2212
     47  N         26.0440  -96.9830   12.9620 N.am  135  ALA135     -0.1966
     48  CA        26.9410  -97.9040   13.6210 C.3   135  ALA135      0.1728
     49  C         26.1510  -98.9050   14.4170 C.2   135  ALA135      0.2616
     50  O         25.0460  -98.6170   14.8470 O.2   135  ALA135     -0.2715
     51  CB        27.8950  -97.1500   14.5020 C.3   135  ALA135      0.0334
     52  N         26.7310 -100.0830   14.6080 N.am  136  PHE136     -0.1960
     53  CA        26.0710 -101.1860   15.2940 C.3   136  PHE136      0.1771
     54  C         26.5570 -101.2970   16.7230 C.2   136  PHE136      0.2619
     55  O         27.7190 -101.0030   17.0340 O.2   136  PHE136     -0.2715
     56  CB        26.3160 -102.4840   14.5140 C.3   136  PHE136      0.0574
     57  CG        25.7560 -102.4370   13.1430 C.ar  136  PHE136     -0.0200
     58  CD1       26.4180 -101.7600   12.1460 C.ar  136  PHE136     -0.0042
     59  CD2       24.5240 -102.9860   12.8700 C.ar  136  PHE136     -0.0042
     60  CE1       25.8880 -101.6710   10.8690 C.ar  136  PHE136     -0.0003
     61  CE2       23.9880 -102.9020   11.5940 C.ar  136  PHE136     -0.0003
     62  CZ        24.6750 -102.2440   10.5940 C.ar  136  PHE136     -0.0000
     63  N         25.6260 -101.6840   17.5850 N.am  137  GLN137     -0.1977
     64  CA        25.8560 -101.8850   19.0000 C.3   137  GLN137      0.1601
     65  C         26.8620 -103.0060   19.2140 C.2   137  GLN137      0.2287
     66  O         27.1170 -103.8020   18.3110 O.2   137  GLN137     -0.2864
     67  CB        24.5360 -102.2500   19.6950 C.3   137  GLN137      0.0394
     68  CG        23.4790 -101.1510   19.6590 C.3   137  GLN137      0.0908
     69  CD        23.8320  -99.9710   20.5500 C.2   137  GLN137      0.2608
     70  OE1       24.1120 -100.1590   21.7360 O.2   137  GLN137     -0.2717
     71  NE2       23.8150  -98.7670   19.9890 N.am  137  GLN137     -0.0878
     72  N         23.0100  -95.1360   22.9380 N.3   178  SER178     -0.1217
     73  CA        21.9110  -94.8040   22.0720 C.3   178  SER178      0.1889
     74  C         21.7810  -93.2960   22.0450 C.2   178  SER178      0.2288
     75  O         22.5190  -92.5680   22.7280 O.2   178  SER178     -0.2866
     76  CB        20.6330  -95.4480   22.6210 C.3   178  SER178      0.2089
     77  OG        20.7560  -96.8770   22.5410 O.3   178  SER178     -0.2183
@<TRIPOS>BOND
     1    33    34    2
     2    33    32    1
     3    31    32    1
     4    32    35    1
     5    35    36    1
     6    45    46   ar
     7    45    43   ar
     8    46    44   ar
     9    43    42   ar
    10    44    42   ar
    11    42    41    1
    12    37    38    1
    13     2     1    1
    14     2     3    1
    15    62    60   ar
    16    62    61   ar
    17    41    38    1
    18    60    58   ar
    19     4     3    2
    20    38    39    1
    21    40    39    2
    22     3     5   am
    23    61    59   ar
    24    39    47   am
    25    58    57   ar
    26     5     6    1
    27    59    57   ar
    28    47    48    1
    29    57    56    1
    30    48    49    1
    31    48    51    1
    32     6     7    1
    33     6     9    1
    34    18    17    1
    35    18    12    1
    36    17    16    1
    37     7     8    2
    38     7    12   am
    39    11     9    1
    40    49    52   am
    41    49    50    2
    42    56    53    1
    43    12    13    1
    44    52    53    1
    45     9    10    1
    46    13    16    1
    47    13    14    1
    48    53    54    1
    49    14    15    2
    50    54    55    2
    51    54    63   am
    52    63    64    1
    53    66    65    2
    54    25    23    1
    55    22    21    2
    56    19    20    1
    57    64    65    1
    58    64    67    1
    59    29    28    2
    60    68    67    1
    61    68    69    1
    62    21    20    1
    63    21    26   am
    64    71    69   am
    65    20    23    1
    66    23    24    1
    67    69    70    2
    68    28    27    1
    69    27    26    1
    70    27    30    1
    71    74    73    1
    72    74    75    2
    73    73    76    1
    74    73    72    1
    75    77    76    1
